Warning: m=xx on .subckt line will override multiplier m hierarchy!

 Reference value :  0.00000e+00
Note: Compatibility modes selected: hs a


Circuit: ** charge pump test bench

option SCALE: Scale is set to 1e-06 for instance and model parameters
Doing analysis at TEMP = 27.000000 and TNOM = 27.000000


No. of Data Rows : 1
dn = 1.800000e+00
m.xcp.x1.xm1.msky130_fd_pr__pfet_01v8#body = 1.800000e+00
m.xcp.x1.xm1.msky130_fd_pr__pfet_01v8#dbody = 1.800000e+00
m.xcp.x1.xm1.msky130_fd_pr__pfet_01v8#sbody = 1.800000e+00
m.xcp.x1.xm2.msky130_fd_pr__nfet_01v8#body = 2.784578e-18
m.xcp.x1.xm2.msky130_fd_pr__nfet_01v8#dbody = 6.959022e-18
m.xcp.x1.xm2.msky130_fd_pr__nfet_01v8#sbody = 1.394714e-18
m.xcp.x2.xm1.msky130_fd_pr__pfet_01v8#body = 1.800000e+00
m.xcp.x2.xm1.msky130_fd_pr__pfet_01v8#dbody = 1.800000e+00
m.xcp.x2.xm1.msky130_fd_pr__pfet_01v8#sbody = 1.800000e+00
m.xcp.x2.xm2.msky130_fd_pr__nfet_01v8#body = 2.784578e-18
m.xcp.x2.xm2.msky130_fd_pr__nfet_01v8#dbody = 6.959022e-18
m.xcp.x2.xm2.msky130_fd_pr__nfet_01v8#sbody = 1.394714e-18
m.xcp.x3.xm1.msky130_fd_pr__nfet_01v8#body = 2.356241e-12
m.xcp.x3.xm1.msky130_fd_pr__nfet_01v8#dbody = 5.890539e-12
m.xcp.x3.xm1.msky130_fd_pr__nfet_01v8#sbody = 1.178183e-12
m.xcp.x3.xm2.msky130_fd_pr__nfet_01v8#body = 8.562228e-161
m.xcp.x3.xm2.msky130_fd_pr__nfet_01v8#dbody = 1.284334e-160
m.xcp.x3.xm2.msky130_fd_pr__nfet_01v8#sbody = 1.284334e-160
m.xcp.x3.xm3.msky130_fd_pr__nfet_01v8#body = 1.353443e-11
m.xcp.x3.xm3.msky130_fd_pr__nfet_01v8#dbody = 2.906030e-11
m.xcp.x3.xm3.msky130_fd_pr__nfet_01v8#sbody = 1.147255e-11
m.xcp.x3.xm4.msky130_fd_pr__nfet_01v8#body = 4.324963e-13
m.xcp.x3.xm4.msky130_fd_pr__nfet_01v8#dbody = 1.081137e-12
m.xcp.x3.xm4.msky130_fd_pr__nfet_01v8#sbody = 2.163522e-13
m.xcp.x3.xm5.msky130_fd_pr__pfet_01v8#body = 1.800000e+00
m.xcp.x3.xm5.msky130_fd_pr__pfet_01v8#dbody = 1.800000e+00
m.xcp.x3.xm5.msky130_fd_pr__pfet_01v8#sbody = 1.800000e+00
m.xcp.x3.xm6.msky130_fd_pr__pfet_01v8#body = 1.800000e+00
m.xcp.x3.xm6.msky130_fd_pr__pfet_01v8#dbody = 1.800000e+00
m.xcp.x3.xm6.msky130_fd_pr__pfet_01v8#sbody = 1.800000e+00
m.xcp.x3.xm7.msky130_fd_pr__pfet_01v8#body = 1.800000e+00
m.xcp.x3.xm7.msky130_fd_pr__pfet_01v8#dbody = 1.800000e+00
m.xcp.x3.xm7.msky130_fd_pr__pfet_01v8#sbody = 1.800000e+00
m.xcp.x3.xm8.msky130_fd_pr__pfet_01v8#body = 1.800000e+00
m.xcp.x3.xm8.msky130_fd_pr__pfet_01v8#dbody = 1.800000e+00
m.xcp.x3.xm8.msky130_fd_pr__pfet_01v8#sbody = 1.800000e+00
m.xcp.x3.xm9.msky130_fd_pr__nfet_01v8#body = 2.603118e-12
m.xcp.x3.xm9.msky130_fd_pr__nfet_01v8#dbody = 6.507757e-12
m.xcp.x3.xm9.msky130_fd_pr__nfet_01v8#sbody = 1.301598e-12
m.xcp.x3.xm10.msky130_fd_pr__nfet_01v8#body = 2.678840e-12
m.xcp.x3.xm10.msky130_fd_pr__nfet_01v8#dbody = 6.697061e-12
m.xcp.x3.xm10.msky130_fd_pr__nfet_01v8#sbody = 1.339459e-12
m.xcp.x3.xm11.msky130_fd_pr__nfet_01v8#body = 1.713467e-11
m.xcp.x3.xm11.msky130_fd_pr__nfet_01v8#dbody = 4.250024e-11
m.xcp.x3.xm11.msky130_fd_pr__nfet_01v8#sbody = 8.903360e-12
m.xcp.x3.xm12.msky130_fd_pr__nfet_01v8#body = 3.782299e-09
m.xcp.x3.xm12.msky130_fd_pr__nfet_01v8#dbody = 1.926514e-09
m.xcp.x3.xm12.msky130_fd_pr__nfet_01v8#sbody = 1.891486e-09
m.xcp.x3.xm13.msky130_fd_pr__nfet_01v8#body = 1.719156e-13
m.xcp.x3.xm13.msky130_fd_pr__nfet_01v8#dbody = 4.297834e-13
m.xcp.x3.xm13.msky130_fd_pr__nfet_01v8#sbody = 8.596354e-14
m.xcp.x3.xm14.msky130_fd_pr__pfet_01v8#body = 1.800000e+00
m.xcp.x3.xm14.msky130_fd_pr__pfet_01v8#dbody = 1.800000e+00
m.xcp.x3.xm14.msky130_fd_pr__pfet_01v8#sbody = 1.800000e+00
m.xcp.x3.xm15.msky130_fd_pr__pfet_01v8#body = 1.800000e+00
m.xcp.x3.xm15.msky130_fd_pr__pfet_01v8#dbody = 1.800000e+00
m.xcp.x3.xm15.msky130_fd_pr__pfet_01v8#sbody = 1.800000e+00
m.xcp.x3.xm16.msky130_fd_pr__nfet_01v8#body = 7.771862e-12
m.xcp.x3.xm16.msky130_fd_pr__nfet_01v8#dbody = 1.422338e-11
m.xcp.x3.xm16.msky130_fd_pr__nfet_01v8#sbody = 9.092201e-12
m.xcp.x3.xm17.msky130_fd_pr__nfet_01v8#body = 1.232837e-11
m.xcp.x3.xm17.msky130_fd_pr__nfet_01v8#dbody = 2.546322e-11
m.xcp.x3.xm17.msky130_fd_pr__nfet_01v8#sbody = 1.152190e-11
m.xcp.x3.xm18.msky130_fd_pr__pfet_01v8#body = 1.800000e+00
m.xcp.x3.xm18.msky130_fd_pr__pfet_01v8#dbody = 1.800000e+00
m.xcp.xNote: No ".plot", ".print", or ".fourier" lines; no simulations run
3.xm18.msky130_fd_pr__pfet_01v8#sbody = 1.800000e+00
m.xcp.x3.xm19.msky130_fd_pr__pfet_01v8#body = 1.800000e+00
m.xcp.x3.xm19.msky130_fd_pr__pfet_01v8#dbody = 1.800000e+00
m.xcp.x3.xm19.msky130_fd_pr__pfet_01v8#sbody = 1.800000e+00
m.xcp.x3.xm20.msky130_fd_pr__pfet_01v8#body = 1.800000e+00
m.xcp.x3.xm20.msky130_fd_pr__pfet_01v8#dbody = 1.800000e+00
m.xcp.x3.xm20.msky130_fd_pr__pfet_01v8#sbody = 1.800000e+00
m.xcp.xm1.msky130_fd_pr__nfet_01v8#body = 2.603118e-12
m.xcp.xm1.msky130_fd_pr__nfet_01v8#dbody = 6.507757e-12
m.xcp.xm1.msky130_fd_pr__nfet_01v8#sbody = 1.301598e-12
m.xcp.xm2.msky130_fd_pr__nfet_01v8#body = 2.678840e-12
m.xcp.xm2.msky130_fd_pr__nfet_01v8#dbody = 6.697061e-12
m.xcp.xm2.msky130_fd_pr__nfet_01v8#sbody = 1.339459e-12
m.xcp.xm3.msky130_fd_pr__nfet_01v8#body = 7.771862e-12
m.xcp.xm3.msky130_fd_pr__nfet_01v8#dbody = 1.422338e-11
m.xcp.xm3.msky130_fd_pr__nfet_01v8#sbody = 9.092201e-12
m.xcp.xm4.msky130_fd_pr__nfet_01v8#body = 1.232837e-11
m.xcp.xm4.msky130_fd_pr__nfet_01v8#dbody = 2.546322e-11
m.xcp.xm4.msky130_fd_pr__nfet_01v8#sbody = 1.152190e-11
m.xcp.xm5.msky130_fd_pr__pfet_01v8#body = 1.800000e+00
m.xcp.xm5.msky130_fd_pr__pfet_01v8#dbody = 1.800000e+00
m.xcp.xm5.msky130_fd_pr__pfet_01v8#sbody = 1.800000e+00
m.xcp.xm6.msky130_fd_pr__pfet_01v8#body = 1.800000e+00
m.xcp.xm6.msky130_fd_pr__pfet_01v8#dbody = 1.800000e+00
m.xcp.xm6.msky130_fd_pr__pfet_01v8#sbody = 1.800000e+00
m.xcp.xm7.msky130_fd_pr__nfet_01v8#body = 2.665113e-12
m.xcp.xm7.msky130_fd_pr__nfet_01v8#dbody = 6.662743e-12
m.xcp.xm7.msky130_fd_pr__nfet_01v8#sbody = 1.332595e-12
m.xcp.xm8.msky130_fd_pr__nfet_01v8#body = 1.085353e-11
m.xcp.xm8.msky130_fd_pr__nfet_01v8#dbody = 2.180356e-11
m.xcp.xm8.msky130_fd_pr__nfet_01v8#sbody = 1.075702e-11
m.xcp.xm9.msky130_fd_pr__nfet_01v8#body = 8.668117e-12
m.xcp.xm9.msky130_fd_pr__nfet_01v8#dbody = 5.245160e-12
m.xcp.xm9.msky130_fd_pr__nfet_01v8#sbody = 2.075919e-11
m.xcp.xm10.msky130_fd_pr__nfet_01v8#body = 1.701387e-11
m.xcp.xm10.msky130_fd_pr__nfet_01v8#dbody = 2.610937e-11
m.xcp.xm10.msky130_fd_pr__nfet_01v8#sbody = 2.493225e-11
m.xcp.xm11.msky130_fd_pr__pfet_01v8#body = 1.800000e+00
m.xcp.xm11.msky130_fd_pr__pfet_01v8#dbody = 1.800000e+00
m.xcp.xm11.msky130_fd_pr__pfet_01v8#sbody = 1.800000e+00
m.xcp.xm12.msky130_fd_pr__pfet_01v8#body = 1.800000e+00
m.xcp.xm12.msky130_fd_pr__pfet_01v8#dbody = 1.800000e+00
m.xcp.xm12.msky130_fd_pr__pfet_01v8#sbody = 1.800000e+00
m.xcp.xm13.msky130_fd_pr__pfet_01v8#body = 1.800000e+00
m.xcp.xm13.msky130_fd_pr__pfet_01v8#dbody = 1.800000e+00
m.xcp.xm13.msky130_fd_pr__pfet_01v8#sbody = 1.800000e+00
m.xcp.xm14.msky130_fd_pr__pfet_01v8#body = 1.800000e+00
m.xcp.xm14.msky130_fd_pr__pfet_01v8#dbody = 1.800000e+00
m.xcp.xm14.msky130_fd_pr__pfet_01v8#sbody = 1.800000e+00
up = 1.800000e+00
vdd = 1.800000e+00
vdd#branch = -1.97735e-04
vin_dn#branch = 0.000000e+00
vin_up#branch = 0.000000e+00
vop = 7.000000e-01
vout#branch = -4.71838e-07
xcp.dnb = 2.150077e-07
xcp.nbais = 7.697901e-01
xcp.net1 = 2.060813e-01
xcp.net2 = 2.121383e-01
xcp.net3 = 1.592814e+00
xcp.net4 = 2.110402e-01
xcp.net5 = 6.529006e-01
xcp.net6 = 1.077959e+00
xcp.net7 = 1.595580e+00
xcp.p_bais = 6.603426e-01
xcp.ubp = 2.150077e-07
xcp.vbn = 1.019790e+00
xcp.vbp = 4.113270e-01
xcp.von = 3.383169e-02
xcp.x3.nbais = 7.697901e-01
xcp.x3.net1 = 1.413360e+00
xcp.x3.net2 = 1.305114e-02
xcp.x3.net3 = 1.356110e+00
xcp.x3.net4 = 8.905200e-01
xcp.x3.net5 = 1.870083e-01
xcp.x3.net6 = 9.230043e-01
xcp.x3.net7 = 2.060813e-01
xcp.x3.net8 = 2.121383e-01
xcp.x3.net9 = 1.592814e+00
xcp.x3.p_bais = 6.603426e-01
xcp.x3.vbn = 1.019790e+00
xcp.x3.vbp = 4.113270e-01
i(vout)*1000000 = -4.71838e-01
