Warning: m=xx on .subckt line will override multiplier m hierarchy!

 Reference value :  0.00000e+00
Note: Compatibility modes selected: hs a


Circuit: ** charge pump test bench

option SCALE: Scale is set to 1e-06 for instance and model parameters
Doing analysis at TEMP = 27.000000 and TNOM = 27.000000


No. of Data Rows : 1
dn = 1.800000e+00
m.xcp.x1.xm1.msky130_fd_pr__pfet_01v8#body = 1.800000e+00
m.xcp.x1.xm1.msky130_fd_pr__pfet_01v8#dbody = 1.800000e+00
m.xcp.x1.xm1.msky130_fd_pr__pfet_01v8#sbody = 1.800000e+00
m.xcp.x1.xm2.msky130_fd_pr__nfet_01v8#body = 2.251934e-11
m.xcp.x1.xm2.msky130_fd_pr__nfet_01v8#dbody = 5.628984e-11
m.xcp.x1.xm2.msky130_fd_pr__nfet_01v8#sbody = 1.125967e-11
m.xcp.x2.xm1.msky130_fd_pr__pfet_01v8#body = 1.800000e+00
m.xcp.x2.xm1.msky130_fd_pr__pfet_01v8#dbody = 1.800000e+00
m.xcp.x2.xm1.msky130_fd_pr__pfet_01v8#sbody = 1.800000e+00
m.xcp.x2.xm2.msky130_fd_pr__nfet_01v8#body = 2.784578e-18
m.xcp.x2.xm2.msky130_fd_pr__nfet_01v8#dbody = 6.959022e-18
m.xcp.x2.xm2.msky130_fd_pr__nfet_01v8#sbody = 1.394714e-18
m.xcp.x3.xm1.msky130_fd_pr__nfet_01v8#body = 2.251630e-12
m.xcp.x3.xm1.msky130_fd_pr__nfet_01v8#dbody = 5.628965e-12
m.xcp.x3.xm1.msky130_fd_pr__nfet_01v8#sbody = 1.125924e-12
m.xcp.x3.xm2.msky130_fd_pr__nfet_01v8#body = -7.31726e-80
m.xcp.x3.xm2.msky130_fd_pr__nfet_01v8#dbody = -1.09759e-79
m.xcp.x3.xm2.msky130_fd_pr__nfet_01v8#sbody = -1.09759e-79
m.xcp.x3.xm3.msky130_fd_pr__nfet_01v8#body = 2.034284e-11
m.xcp.x3.xm3.msky130_fd_pr__nfet_01v8#dbody = 3.626821e-11
m.xcp.x3.xm3.msky130_fd_pr__nfet_01v8#sbody = 1.466756e-11
m.xcp.x3.xm4.msky130_fd_pr__nfet_01v8#body = 8.002421e-08
m.xcp.x3.xm4.msky130_fd_pr__nfet_01v8#dbody = 4.004927e-08
m.xcp.x3.xm4.msky130_fd_pr__nfet_01v8#sbody = 4.001211e-08
m.xcp.x3.xm5.msky130_fd_pr__pfet_01v8#body = 1.800000e+00
m.xcp.x3.xm5.msky130_fd_pr__pfet_01v8#dbody = 1.800000e+00
m.xcp.x3.xm5.msky130_fd_pr__pfet_01v8#sbody = 1.800000e+00
m.xcp.x3.xm6.msky130_fd_pr__pfet_01v8#body = 1.800000e+00
m.xcp.x3.xm6.msky130_fd_pr__pfet_01v8#dbody = 1.800000e+00
m.xcp.x3.xm6.msky130_fd_pr__pfet_01v8#sbody = 1.800000e+00
m.xcp.x3.xm7.msky130_fd_pr__pfet_01v8#body = 1.800000e+00
m.xcp.x3.xm7.msky130_fd_pr__pfet_01v8#dbody = 1.800000e+00
m.xcp.x3.xm7.msky130_fd_pr__pfet_01v8#sbody = 1.800000e+00
m.xcp.x3.xm8.msky130_fd_pr__pfet_01v8#body = 1.800000e+00
m.xcp.x3.xm8.msky130_fd_pr__pfet_01v8#dbody = 1.800000e+00
m.xcp.x3.xm8.msky130_fd_pr__pfet_01v8#sbody = 1.800000e+00
m.xcp.x3.xm9.msky130_fd_pr__nfet_01v8#body = 2.603118e-12
m.xcp.x3.xm9.msky130_fd_pr__nfet_01v8#dbody = 6.507757e-12
m.xcp.x3.xm9.msky130_fd_pr__nfet_01v8#sbody = 1.301598e-12
m.xcp.x3.xm10.msky130_fd_pr__nfet_01v8#body = 2.678840e-12
m.xcp.x3.xm10.msky130_fd_pr__nfet_01v8#dbody = 6.697061e-12
m.xcp.x3.xm10.msky130_fd_pr__nfet_01v8#sbody = 1.339459e-12
m.xcp.x3.xm11.msky130_fd_pr__nfet_01v8#body = 2.566893e-11
m.xcp.x3.xm11.msky130_fd_pr__nfet_01v8#dbody = 4.720228e-11
m.xcp.x3.xm11.msky130_fd_pr__nfet_01v8#sbody = 2.665706e-11
m.xcp.x3.xm12.msky130_fd_pr__nfet_01v8#body = 2.519186e-11
m.xcp.x3.xm12.msky130_fd_pr__nfet_01v8#dbody = 4.909010e-11
m.xcp.x3.xm12.msky130_fd_pr__nfet_01v8#sbody = 2.641837e-11
m.xcp.x3.xm13.msky130_fd_pr__nfet_01v8#body = 6.923298e-12
m.xcp.x3.xm13.msky130_fd_pr__nfet_01v8#dbody = 1.730820e-11
m.xcp.x3.xm13.msky130_fd_pr__nfet_01v8#sbody = 3.461691e-12
m.xcp.x3.xm14.msky130_fd_pr__pfet_01v8#body = 1.800000e+00
m.xcp.x3.xm14.msky130_fd_pr__pfet_01v8#dbody = 1.800000e+00
m.xcp.x3.xm14.msky130_fd_pr__pfet_01v8#sbody = 1.800000e+00
m.xcp.x3.xm15.msky130_fd_pr__pfet_01v8#body = 1.800000e+00
m.xcp.x3.xm15.msky130_fd_pr__pfet_01v8#dbody = 1.800000e+00
m.xcp.x3.xm15.msky130_fd_pr__pfet_01v8#sbody = 1.800000e+00
m.xcp.x3.xm16.msky130_fd_pr__nfet_01v8#body = 7.771862e-12
m.xcp.x3.xm16.msky130_fd_pr__nfet_01v8#dbody = 1.422338e-11
m.xcp.x3.xm16.msky130_fd_pr__nfet_01v8#sbody = 9.092201e-12
m.xcp.x3.xm17.msky130_fd_pr__nfet_01v8#body = 1.232837e-11
m.xcp.x3.xm17.msky130_fd_pr__nfet_01v8#dbody = 2.546322e-11
m.xcp.x3.xm17.msky130_fd_pr__nfet_01v8#sbody = 1.152190e-11
m.xcp.x3.xm18.msky130_fd_pr__pfet_01v8#body = 1.800000e+00
m.xcp.x3.xm18.msky130_fd_pr__pfet_01v8#dbody = 1.800000e+00
m.xcp.x3.xNote: No ".plot", ".print", or ".fourier" lines; no simulations run
m18.msky130_fd_pr__pfet_01v8#sbody = 1.800000e+00
m.xcp.x3.xm19.msky130_fd_pr__pfet_01v8#body = 1.800000e+00
m.xcp.x3.xm19.msky130_fd_pr__pfet_01v8#dbody = 1.800000e+00
m.xcp.x3.xm19.msky130_fd_pr__pfet_01v8#sbody = 1.800000e+00
m.xcp.x3.xm20.msky130_fd_pr__pfet_01v8#body = 1.800000e+00
m.xcp.x3.xm20.msky130_fd_pr__pfet_01v8#dbody = 1.800000e+00
m.xcp.x3.xm20.msky130_fd_pr__pfet_01v8#sbody = 1.800000e+00
m.xcp.xm1.msky130_fd_pr__nfet_01v8#body = 2.603118e-12
m.xcp.xm1.msky130_fd_pr__nfet_01v8#dbody = 6.507757e-12
m.xcp.xm1.msky130_fd_pr__nfet_01v8#sbody = 1.301598e-12
m.xcp.xm2.msky130_fd_pr__nfet_01v8#body = 2.678840e-12
m.xcp.xm2.msky130_fd_pr__nfet_01v8#dbody = 6.697061e-12
m.xcp.xm2.msky130_fd_pr__nfet_01v8#sbody = 1.339459e-12
m.xcp.xm3.msky130_fd_pr__nfet_01v8#body = 7.771862e-12
m.xcp.xm3.msky130_fd_pr__nfet_01v8#dbody = 1.422338e-11
m.xcp.xm3.msky130_fd_pr__nfet_01v8#sbody = 9.092201e-12
m.xcp.xm4.msky130_fd_pr__nfet_01v8#body = 1.232837e-11
m.xcp.xm4.msky130_fd_pr__nfet_01v8#dbody = 2.546322e-11
m.xcp.xm4.msky130_fd_pr__nfet_01v8#sbody = 1.152190e-11
m.xcp.xm5.msky130_fd_pr__pfet_01v8#body = 1.800000e+00
m.xcp.xm5.msky130_fd_pr__pfet_01v8#dbody = 1.800000e+00
m.xcp.xm5.msky130_fd_pr__pfet_01v8#sbody = 1.800000e+00
m.xcp.xm6.msky130_fd_pr__pfet_01v8#body = 1.800000e+00
m.xcp.xm6.msky130_fd_pr__pfet_01v8#dbody = 1.800000e+00
m.xcp.xm6.msky130_fd_pr__pfet_01v8#sbody = 1.800000e+00
m.xcp.xm7.msky130_fd_pr__nfet_01v8#body = 2.684278e-12
m.xcp.xm7.msky130_fd_pr__nfet_01v8#dbody = 6.710656e-12
m.xcp.xm7.msky130_fd_pr__nfet_01v8#sbody = 1.342178e-12
m.xcp.xm8.msky130_fd_pr__nfet_01v8#body = 1.302304e-11
m.xcp.xm8.msky130_fd_pr__nfet_01v8#dbody = 2.718902e-11
m.xcp.xm8.msky130_fd_pr__nfet_01v8#sbody = 1.188011e-11
m.xcp.xm9.msky130_fd_pr__nfet_01v8#body = 2.898070e-11
m.xcp.xm9.msky130_fd_pr__nfet_01v8#dbody = 5.172591e-11
m.xcp.xm9.msky130_fd_pr__nfet_01v8#sbody = 3.521618e-11
m.xcp.xm10.msky130_fd_pr__nfet_01v8#body = 2.416423e-11
m.xcp.xm10.msky130_fd_pr__nfet_01v8#dbody = 3.968455e-11
m.xcp.xm10.msky130_fd_pr__nfet_01v8#sbody = 3.280813e-11
m.xcp.xm11.msky130_fd_pr__pfet_01v8#body = 1.800000e+00
m.xcp.xm11.msky130_fd_pr__pfet_01v8#dbody = 1.800000e+00
m.xcp.xm11.msky130_fd_pr__pfet_01v8#sbody = 1.800000e+00
m.xcp.xm12.msky130_fd_pr__pfet_01v8#body = 1.800000e+00
m.xcp.xm12.msky130_fd_pr__pfet_01v8#dbody = 1.800000e+00
m.xcp.xm12.msky130_fd_pr__pfet_01v8#sbody = 1.800000e+00
m.xcp.xm13.msky130_fd_pr__pfet_01v8#body = 1.800000e+00
m.xcp.xm13.msky130_fd_pr__pfet_01v8#dbody = 1.800000e+00
m.xcp.xm13.msky130_fd_pr__pfet_01v8#sbody = 1.800000e+00
m.xcp.xm14.msky130_fd_pr__pfet_01v8#body = 1.800000e+00
m.xcp.xm14.msky130_fd_pr__pfet_01v8#dbody = 1.800000e+00
m.xcp.xm14.msky130_fd_pr__pfet_01v8#sbody = 1.800000e+00
up = 0.000000e+00
vdd = 1.800000e+00
vdd#branch = -1.89806e-04
vin_dn#branch = 0.000000e+00
vin_up#branch = 0.000000e+00
vop = 1.100000e+00
vout#branch = -1.00027e-04
xcp.dnb = 2.150077e-07
xcp.nbais = 7.697901e-01
xcp.net1 = 2.060813e-01
xcp.net2 = 2.121383e-01
xcp.net3 = 1.592814e+00
xcp.net4 = 2.125733e-01
xcp.net5 = 8.249287e-01
xcp.net6 = 1.524618e+00
xcp.net7 = 1.623302e+00
xcp.p_bais = 6.603426e-01
xcp.ubp = 1.800000e+00
xcp.vbn = 1.019790e+00
xcp.vbp = 4.113270e-01
xcp.von = 1.485318e+00
xcp.x3.nbais = 7.697901e-01
xcp.x3.net1 = 1.458560e+00
xcp.x3.net2 = 5.516910e-01
xcp.x3.net3 = 1.373512e+00
xcp.x3.net4 = 1.042669e+00
xcp.x3.net5 = 1.786409e-01
xcp.x3.net6 = 1.747617e+00
xcp.x3.net7 = 2.060813e-01
xcp.x3.net8 = 2.121383e-01
xcp.x3.net9 = 1.592814e+00
xcp.x3.p_bais = 6.603426e-01
xcp.x3.vbn = 1.019790e+00
xcp.x3.vbp = 4.113270e-01
i(vout)*1000000 = -1.00027e+02
