Warning: m=xx on .subckt line will override multiplier m hierarchy!

 Reference value :  0.00000e+00
Note: Compatibility modes selected: hs a


Circuit: ** charge pump test bench

option SCALE: Scale is set to 1e-06 for instance and model parameters
Doing analysis at TEMP = 27.000000 and TNOM = 27.000000


No. of Data Rows : 1
dn = 1.800000e+00
m.xcp.x1.xm1.msky130_fd_pr__pfet_01v8#body = 1.800000e+00
m.xcp.x1.xm1.msky130_fd_pr__pfet_01v8#dbody = 1.800000e+00
m.xcp.x1.xm1.msky130_fd_pr__pfet_01v8#sbody = 1.800000e+00
m.xcp.x1.xm2.msky130_fd_pr__nfet_01v8#body = 2.784578e-18
m.xcp.x1.xm2.msky130_fd_pr__nfet_01v8#dbody = 6.959022e-18
m.xcp.x1.xm2.msky130_fd_pr__nfet_01v8#sbody = 1.394714e-18
m.xcp.x2.xm1.msky130_fd_pr__pfet_01v8#body = 1.800000e+00
m.xcp.x2.xm1.msky130_fd_pr__pfet_01v8#dbody = 1.800000e+00
m.xcp.x2.xm1.msky130_fd_pr__pfet_01v8#sbody = 1.800000e+00
m.xcp.x2.xm2.msky130_fd_pr__nfet_01v8#body = 2.784578e-18
m.xcp.x2.xm2.msky130_fd_pr__nfet_01v8#dbody = 6.959022e-18
m.xcp.x2.xm2.msky130_fd_pr__nfet_01v8#sbody = 1.394714e-18
m.xcp.x3.xm1.msky130_fd_pr__nfet_01v8#body = 2.260056e-12
m.xcp.x3.xm1.msky130_fd_pr__nfet_01v8#dbody = 5.650026e-12
m.xcp.x3.xm1.msky130_fd_pr__nfet_01v8#sbody = 1.130142e-12
m.xcp.x3.xm2.msky130_fd_pr__nfet_01v8#body = 1.460601e-78
m.xcp.x3.xm2.msky130_fd_pr__nfet_01v8#dbody = 2.190901e-78
m.xcp.x3.xm2.msky130_fd_pr__nfet_01v8#sbody = 2.190901e-78
m.xcp.x3.xm3.msky130_fd_pr__nfet_01v8#body = 2.275020e-11
m.xcp.x3.xm3.msky130_fd_pr__nfet_01v8#dbody = 3.786052e-11
m.xcp.x3.xm3.msky130_fd_pr__nfet_01v8#sbody = 1.588809e-11
m.xcp.x3.xm4.msky130_fd_pr__nfet_01v8#body = 4.324962e-13
m.xcp.x3.xm4.msky130_fd_pr__nfet_01v8#dbody = 1.081137e-12
m.xcp.x3.xm4.msky130_fd_pr__nfet_01v8#sbody = 2.163522e-13
m.xcp.x3.xm5.msky130_fd_pr__pfet_01v8#body = 1.800000e+00
m.xcp.x3.xm5.msky130_fd_pr__pfet_01v8#dbody = 1.800000e+00
m.xcp.x3.xm5.msky130_fd_pr__pfet_01v8#sbody = 1.800000e+00
m.xcp.x3.xm6.msky130_fd_pr__pfet_01v8#body = 1.800000e+00
m.xcp.x3.xm6.msky130_fd_pr__pfet_01v8#dbody = 1.800000e+00
m.xcp.x3.xm6.msky130_fd_pr__pfet_01v8#sbody = 1.800000e+00
m.xcp.x3.xm7.msky130_fd_pr__pfet_01v8#body = 1.800000e+00
m.xcp.x3.xm7.msky130_fd_pr__pfet_01v8#dbody = 1.800000e+00
m.xcp.x3.xm7.msky130_fd_pr__pfet_01v8#sbody = 1.800000e+00
m.xcp.x3.xm8.msky130_fd_pr__pfet_01v8#body = 1.800000e+00
m.xcp.x3.xm8.msky130_fd_pr__pfet_01v8#dbody = 1.800000e+00
m.xcp.x3.xm8.msky130_fd_pr__pfet_01v8#sbody = 1.800000e+00
m.xcp.x3.xm9.msky130_fd_pr__nfet_01v8#body = 2.603118e-12
m.xcp.x3.xm9.msky130_fd_pr__nfet_01v8#dbody = 6.507757e-12
m.xcp.x3.xm9.msky130_fd_pr__nfet_01v8#sbody = 1.301598e-12
m.xcp.x3.xm10.msky130_fd_pr__nfet_01v8#body = 2.678840e-12
m.xcp.x3.xm10.msky130_fd_pr__nfet_01v8#dbody = 6.697061e-12
m.xcp.x3.xm10.msky130_fd_pr__nfet_01v8#sbody = 1.339459e-12
m.xcp.x3.xm11.msky130_fd_pr__nfet_01v8#body = 1.696680e-11
m.xcp.x3.xm11.msky130_fd_pr__nfet_01v8#dbody = 4.241631e-11
m.xcp.x3.xm11.msky130_fd_pr__nfet_01v8#sbody = 8.483401e-12
m.xcp.x3.xm12.msky130_fd_pr__nfet_01v8#body = 1.827259e-11
m.xcp.x3.xm12.msky130_fd_pr__nfet_01v8#dbody = 4.568071e-11
m.xcp.x3.xm12.msky130_fd_pr__nfet_01v8#sbody = 9.136294e-12
m.xcp.x3.xm13.msky130_fd_pr__nfet_01v8#body = 3.047432e-20
m.xcp.x3.xm13.msky130_fd_pr__nfet_01v8#dbody = 7.618475e-20
m.xcp.x3.xm13.msky130_fd_pr__nfet_01v8#sbody = 1.523821e-20
m.xcp.x3.xm14.msky130_fd_pr__pfet_01v8#body = 1.800000e+00
m.xcp.x3.xm14.msky130_fd_pr__pfet_01v8#dbody = 1.800000e+00
m.xcp.x3.xm14.msky130_fd_pr__pfet_01v8#sbody = 1.800000e+00
m.xcp.x3.xm15.msky130_fd_pr__pfet_01v8#body = 1.800000e+00
m.xcp.x3.xm15.msky130_fd_pr__pfet_01v8#dbody = 1.800000e+00
m.xcp.x3.xm15.msky130_fd_pr__pfet_01v8#sbody = 1.800000e+00
m.xcp.x3.xm16.msky130_fd_pr__nfet_01v8#body = 7.771862e-12
m.xcp.x3.xm16.msky130_fd_pr__nfet_01v8#dbody = 1.422338e-11
m.xcp.x3.xm16.msky130_fd_pr__nfet_01v8#sbody = 9.092201e-12
m.xcp.x3.xm17.msky130_fd_pr__nfet_01v8#body = 1.232837e-11
m.xcp.x3.xm17.msky130_fd_pr__nfet_01v8#dbody = 2.546322e-11
m.xcp.x3.xm17.msky130_fd_pr__nfet_01v8#sbody = 1.152190e-11
m.xcp.x3.xm18.msky130_fd_pr__pfet_01v8#body = 1.800000e+00
m.xcp.x3.xm18.msky130_fd_pr__pfet_01v8#dbody = 1.800000e+00
m.xcp.x3.xNote: No ".plot", ".print", or ".fourier" lines; no simulations run
m18.msky130_fd_pr__pfet_01v8#sbody = 1.800000e+00
m.xcp.x3.xm19.msky130_fd_pr__pfet_01v8#body = 1.800000e+00
m.xcp.x3.xm19.msky130_fd_pr__pfet_01v8#dbody = 1.800000e+00
m.xcp.x3.xm19.msky130_fd_pr__pfet_01v8#sbody = 1.800000e+00
m.xcp.x3.xm20.msky130_fd_pr__pfet_01v8#body = 1.800000e+00
m.xcp.x3.xm20.msky130_fd_pr__pfet_01v8#dbody = 1.800000e+00
m.xcp.x3.xm20.msky130_fd_pr__pfet_01v8#sbody = 1.800000e+00
m.xcp.xm1.msky130_fd_pr__nfet_01v8#body = 2.603118e-12
m.xcp.xm1.msky130_fd_pr__nfet_01v8#dbody = 6.507757e-12
m.xcp.xm1.msky130_fd_pr__nfet_01v8#sbody = 1.301598e-12
m.xcp.xm2.msky130_fd_pr__nfet_01v8#body = 2.678840e-12
m.xcp.xm2.msky130_fd_pr__nfet_01v8#dbody = 6.697061e-12
m.xcp.xm2.msky130_fd_pr__nfet_01v8#sbody = 1.339459e-12
m.xcp.xm3.msky130_fd_pr__nfet_01v8#body = 7.771862e-12
m.xcp.xm3.msky130_fd_pr__nfet_01v8#dbody = 1.422338e-11
m.xcp.xm3.msky130_fd_pr__nfet_01v8#sbody = 9.092201e-12
m.xcp.xm4.msky130_fd_pr__nfet_01v8#body = 1.232837e-11
m.xcp.xm4.msky130_fd_pr__nfet_01v8#dbody = 2.546322e-11
m.xcp.xm4.msky130_fd_pr__nfet_01v8#sbody = 1.152190e-11
m.xcp.xm5.msky130_fd_pr__pfet_01v8#body = 1.800000e+00
m.xcp.xm5.msky130_fd_pr__pfet_01v8#dbody = 1.800000e+00
m.xcp.xm5.msky130_fd_pr__pfet_01v8#sbody = 1.800000e+00
m.xcp.xm6.msky130_fd_pr__pfet_01v8#body = 1.800000e+00
m.xcp.xm6.msky130_fd_pr__pfet_01v8#dbody = 1.800000e+00
m.xcp.xm6.msky130_fd_pr__pfet_01v8#sbody = 1.800000e+00
m.xcp.xm7.msky130_fd_pr__nfet_01v8#body = 2.322534e-22
m.xcp.xm7.msky130_fd_pr__nfet_01v8#dbody = 5.806254e-22
m.xcp.xm7.msky130_fd_pr__nfet_01v8#sbody = 1.161347e-22
m.xcp.xm8.msky130_fd_pr__nfet_01v8#body = 5.473682e-22
m.xcp.xm8.msky130_fd_pr__nfet_01v8#dbody = 9.039057e-22
m.xcp.xm8.msky130_fd_pr__nfet_01v8#sbody = 7.381989e-22
m.xcp.xm9.msky130_fd_pr__nfet_01v8#body = 4.555508e-13
m.xcp.xm9.msky130_fd_pr__nfet_01v8#dbody = 1.138877e-12
m.xcp.xm9.msky130_fd_pr__nfet_01v8#sbody = 2.277754e-13
m.xcp.xm10.msky130_fd_pr__nfet_01v8#body = 3.322119e-22
m.xcp.xm10.msky130_fd_pr__nfet_01v8#dbody = 1.664110e-22
m.xcp.xm10.msky130_fd_pr__nfet_01v8#sbody = 8.302246e-22
m.xcp.xm11.msky130_fd_pr__pfet_01v8#body = 1.800000e+00
m.xcp.xm11.msky130_fd_pr__pfet_01v8#dbody = 1.800000e+00
m.xcp.xm11.msky130_fd_pr__pfet_01v8#sbody = 1.800000e+00
m.xcp.xm12.msky130_fd_pr__pfet_01v8#body = 1.800000e+00
m.xcp.xm12.msky130_fd_pr__pfet_01v8#dbody = 1.800000e+00
m.xcp.xm12.msky130_fd_pr__pfet_01v8#sbody = 1.800000e+00
m.xcp.xm13.msky130_fd_pr__pfet_01v8#body = 1.800000e+00
m.xcp.xm13.msky130_fd_pr__pfet_01v8#dbody = 1.800000e+00
m.xcp.xm13.msky130_fd_pr__pfet_01v8#sbody = 1.800000e+00
m.xcp.xm14.msky130_fd_pr__pfet_01v8#body = 1.800000e+00
m.xcp.xm14.msky130_fd_pr__pfet_01v8#dbody = 1.800000e+00
m.xcp.xm14.msky130_fd_pr__pfet_01v8#sbody = 1.800000e+00
up = 1.800000e+00
vdd = 1.800000e+00
vdd#branch = -1.97707e-04
vin_dn#branch = 0.000000e+00
vin_up#branch = 0.000000e+00
vop = 0.000000e+00
vout#branch = 9.949287e-05
xcp.dnb = 2.150077e-07
xcp.nbais = 7.697901e-01
xcp.net1 = 2.060813e-01
xcp.net2 = 2.121383e-01
xcp.net3 = 1.592814e+00
xcp.net4 = 1.744665e-11
xcp.net5 = 2.367112e-11
xcp.net6 = 9.965218e-01
xcp.net7 = 1.594957e+00
xcp.p_bais = 6.603426e-01
xcp.ubp = 2.150077e-07
xcp.vbn = 1.019790e+00
xcp.vbp = 4.113270e-01
xcp.von = 3.383169e-02
xcp.x3.nbais = 7.697901e-01
xcp.x3.net1 = 1.460570e+00
xcp.x3.net2 = 2.289202e-09
xcp.x3.net3 = 1.356110e+00
xcp.x3.net4 = 1.058214e+00
xcp.x3.net5 = 1.793149e-01
xcp.x3.net6 = 8.780304e-01
xcp.x3.net7 = 2.060813e-01
xcp.x3.net8 = 2.121383e-01
xcp.x3.net9 = 1.592814e+00
xcp.x3.p_bais = 6.603426e-01
xcp.x3.vbn = 1.019790e+00
xcp.x3.vbp = 4.113270e-01
i(vout)*1000000 = 9.949287e+01
