Warning: m=xx on .subckt line will override multiplier m hierarchy!

 Reference value :  0.00000e+00
Note: Compatibility modes selected: hs a


Circuit: ** charge pump test bench

option SCALE: Scale is set to 1e-06 for instance and model parameters
Doing analysis at TEMP = 27.000000 and TNOM = 27.000000


No. of Data Rows : 1
dn = 1.800000e+00
m.xcp.x1.xm1.msky130_fd_pr__pfet_01v8#body = 1.800000e+00
m.xcp.x1.xm1.msky130_fd_pr__pfet_01v8#dbody = 1.800000e+00
m.xcp.x1.xm1.msky130_fd_pr__pfet_01v8#sbody = 1.800000e+00
m.xcp.x1.xm2.msky130_fd_pr__nfet_01v8#body = 2.251934e-11
m.xcp.x1.xm2.msky130_fd_pr__nfet_01v8#dbody = 5.628984e-11
m.xcp.x1.xm2.msky130_fd_pr__nfet_01v8#sbody = 1.125967e-11
m.xcp.x2.xm1.msky130_fd_pr__pfet_01v8#body = 1.800000e+00
m.xcp.x2.xm1.msky130_fd_pr__pfet_01v8#dbody = 1.800000e+00
m.xcp.x2.xm1.msky130_fd_pr__pfet_01v8#sbody = 1.800000e+00
m.xcp.x2.xm2.msky130_fd_pr__nfet_01v8#body = 2.784578e-18
m.xcp.x2.xm2.msky130_fd_pr__nfet_01v8#dbody = 6.959022e-18
m.xcp.x2.xm2.msky130_fd_pr__nfet_01v8#sbody = 1.394714e-18
m.xcp.x3.xm1.msky130_fd_pr__nfet_01v8#body = 2.307384e-12
m.xcp.x3.xm1.msky130_fd_pr__nfet_01v8#dbody = 5.768319e-12
m.xcp.x3.xm1.msky130_fd_pr__nfet_01v8#sbody = 1.153833e-12
m.xcp.x3.xm2.msky130_fd_pr__nfet_01v8#body = 3.240180e-56
m.xcp.x3.xm2.msky130_fd_pr__nfet_01v8#dbody = 4.860270e-56
m.xcp.x3.xm2.msky130_fd_pr__nfet_01v8#sbody = 4.860270e-56
m.xcp.x3.xm3.msky130_fd_pr__nfet_01v8#body = 5.550456e-11
m.xcp.x3.xm3.msky130_fd_pr__nfet_01v8#dbody = 5.626173e-11
m.xcp.x3.xm3.msky130_fd_pr__nfet_01v8#sbody = 3.235993e-11
m.xcp.x3.xm4.msky130_fd_pr__nfet_01v8#body = 7.988070e-08
m.xcp.x3.xm4.msky130_fd_pr__nfet_01v8#dbody = 3.997751e-08
m.xcp.x3.xm4.msky130_fd_pr__nfet_01v8#sbody = 3.994035e-08
m.xcp.x3.xm5.msky130_fd_pr__pfet_01v8#body = 1.800000e+00
m.xcp.x3.xm5.msky130_fd_pr__pfet_01v8#dbody = 1.800000e+00
m.xcp.x3.xm5.msky130_fd_pr__pfet_01v8#sbody = 1.800000e+00
m.xcp.x3.xm6.msky130_fd_pr__pfet_01v8#body = 1.800000e+00
m.xcp.x3.xm6.msky130_fd_pr__pfet_01v8#dbody = 1.800000e+00
m.xcp.x3.xm6.msky130_fd_pr__pfet_01v8#sbody = 1.800000e+00
m.xcp.x3.xm7.msky130_fd_pr__pfet_01v8#body = 1.800000e+00
m.xcp.x3.xm7.msky130_fd_pr__pfet_01v8#dbody = 1.800000e+00
m.xcp.x3.xm7.msky130_fd_pr__pfet_01v8#sbody = 1.800000e+00
m.xcp.x3.xm8.msky130_fd_pr__pfet_01v8#body = 1.800000e+00
m.xcp.x3.xm8.msky130_fd_pr__pfet_01v8#dbody = 1.800000e+00
m.xcp.x3.xm8.msky130_fd_pr__pfet_01v8#sbody = 1.800000e+00
m.xcp.x3.xm9.msky130_fd_pr__nfet_01v8#body = 2.603118e-12
m.xcp.x3.xm9.msky130_fd_pr__nfet_01v8#dbody = 6.507757e-12
m.xcp.x3.xm9.msky130_fd_pr__nfet_01v8#sbody = 1.301598e-12
m.xcp.x3.xm10.msky130_fd_pr__nfet_01v8#body = 2.678840e-12
m.xcp.x3.xm10.msky130_fd_pr__nfet_01v8#dbody = 6.697061e-12
m.xcp.x3.xm10.msky130_fd_pr__nfet_01v8#sbody = 1.339459e-12
m.xcp.x3.xm11.msky130_fd_pr__nfet_01v8#body = 2.564446e-11
m.xcp.x3.xm11.msky130_fd_pr__nfet_01v8#dbody = 4.717615e-11
m.xcp.x3.xm11.msky130_fd_pr__nfet_01v8#sbody = 2.663865e-11
m.xcp.x3.xm12.msky130_fd_pr__nfet_01v8#body = 2.531295e-11
m.xcp.x3.xm12.msky130_fd_pr__nfet_01v8#dbody = 4.946611e-11
m.xcp.x3.xm12.msky130_fd_pr__nfet_01v8#sbody = 2.647273e-11
m.xcp.x3.xm13.msky130_fd_pr__nfet_01v8#body = 6.920207e-12
m.xcp.x3.xm13.msky130_fd_pr__nfet_01v8#dbody = 1.730047e-11
m.xcp.x3.xm13.msky130_fd_pr__nfet_01v8#sbody = 3.460146e-12
m.xcp.x3.xm14.msky130_fd_pr__pfet_01v8#body = 1.800000e+00
m.xcp.x3.xm14.msky130_fd_pr__pfet_01v8#dbody = 1.800000e+00
m.xcp.x3.xm14.msky130_fd_pr__pfet_01v8#sbody = 1.800000e+00
m.xcp.x3.xm15.msky130_fd_pr__pfet_01v8#body = 1.800000e+00
m.xcp.x3.xm15.msky130_fd_pr__pfet_01v8#dbody = 1.800000e+00
m.xcp.x3.xm15.msky130_fd_pr__pfet_01v8#sbody = 1.800000e+00
m.xcp.x3.xm16.msky130_fd_pr__nfet_01v8#body = 7.771862e-12
m.xcp.x3.xm16.msky130_fd_pr__nfet_01v8#dbody = 1.422338e-11
m.xcp.x3.xm16.msky130_fd_pr__nfet_01v8#sbody = 9.092201e-12
m.xcp.x3.xm17.msky130_fd_pr__nfet_01v8#body = 1.232837e-11
m.xcp.x3.xm17.msky130_fd_pr__nfet_01v8#dbody = 2.546322e-11
m.xcp.x3.xm17.msky130_fd_pr__nfet_01v8#sbody = 1.152190e-11
m.xcp.x3.xm18.msky130_fd_pr__pfet_01v8#body = 1.800000e+00
m.xcp.x3.xm18.msky130_fd_pr__pfet_01v8#dbody = 1.800000e+00
m.xcp.x3.xNote: No ".plot", ".print", or ".fourier" lines; no simulations run
m18.msky130_fd_pr__pfet_01v8#sbody = 1.800000e+00
m.xcp.x3.xm19.msky130_fd_pr__pfet_01v8#body = 1.800000e+00
m.xcp.x3.xm19.msky130_fd_pr__pfet_01v8#dbody = 1.800000e+00
m.xcp.x3.xm19.msky130_fd_pr__pfet_01v8#sbody = 1.800000e+00
m.xcp.x3.xm20.msky130_fd_pr__pfet_01v8#body = 1.800000e+00
m.xcp.x3.xm20.msky130_fd_pr__pfet_01v8#dbody = 1.800000e+00
m.xcp.x3.xm20.msky130_fd_pr__pfet_01v8#sbody = 1.800000e+00
m.xcp.xm1.msky130_fd_pr__nfet_01v8#body = 2.603118e-12
m.xcp.xm1.msky130_fd_pr__nfet_01v8#dbody = 6.507757e-12
m.xcp.xm1.msky130_fd_pr__nfet_01v8#sbody = 1.301598e-12
m.xcp.xm2.msky130_fd_pr__nfet_01v8#body = 2.678840e-12
m.xcp.xm2.msky130_fd_pr__nfet_01v8#dbody = 6.697061e-12
m.xcp.xm2.msky130_fd_pr__nfet_01v8#sbody = 1.339459e-12
m.xcp.xm3.msky130_fd_pr__nfet_01v8#body = 7.771862e-12
m.xcp.xm3.msky130_fd_pr__nfet_01v8#dbody = 1.422338e-11
m.xcp.xm3.msky130_fd_pr__nfet_01v8#sbody = 9.092201e-12
m.xcp.xm4.msky130_fd_pr__nfet_01v8#body = 1.232837e-11
m.xcp.xm4.msky130_fd_pr__nfet_01v8#dbody = 2.546322e-11
m.xcp.xm4.msky130_fd_pr__nfet_01v8#sbody = 1.152190e-11
m.xcp.xm5.msky130_fd_pr__pfet_01v8#body = 1.800000e+00
m.xcp.xm5.msky130_fd_pr__pfet_01v8#dbody = 1.800000e+00
m.xcp.xm5.msky130_fd_pr__pfet_01v8#sbody = 1.800000e+00
m.xcp.xm6.msky130_fd_pr__pfet_01v8#body = 1.800000e+00
m.xcp.xm6.msky130_fd_pr__pfet_01v8#dbody = 1.800000e+00
m.xcp.xm6.msky130_fd_pr__pfet_01v8#sbody = 1.800000e+00
m.xcp.xm7.msky130_fd_pr__nfet_01v8#body = 2.574493e-12
m.xcp.xm7.msky130_fd_pr__nfet_01v8#dbody = 6.436193e-12
m.xcp.xm7.msky130_fd_pr__nfet_01v8#sbody = 1.287285e-12
m.xcp.xm8.msky130_fd_pr__nfet_01v8#body = 7.300804e-12
m.xcp.xm8.msky130_fd_pr__nfet_01v8#dbody = 1.310299e-11
m.xcp.xm8.msky130_fd_pr__nfet_01v8#sbody = 8.799421e-12
m.xcp.xm9.msky130_fd_pr__nfet_01v8#body = 2.336579e-11
m.xcp.xm9.msky130_fd_pr__nfet_01v8#dbody = 4.891354e-11
m.xcp.xm9.msky130_fd_pr__nfet_01v8#sbody = 2.118382e-11
m.xcp.xm10.msky130_fd_pr__nfet_01v8#body = 9.801771e-12
m.xcp.xm10.msky130_fd_pr__nfet_01v8#dbody = 1.500332e-11
m.xcp.xm10.msky130_fd_pr__nfet_01v8#sbody = 1.440199e-11
m.xcp.xm11.msky130_fd_pr__pfet_01v8#body = 1.800000e+00
m.xcp.xm11.msky130_fd_pr__pfet_01v8#dbody = 1.800000e+00
m.xcp.xm11.msky130_fd_pr__pfet_01v8#sbody = 1.800000e+00
m.xcp.xm12.msky130_fd_pr__pfet_01v8#body = 1.800000e+00
m.xcp.xm12.msky130_fd_pr__pfet_01v8#dbody = 1.800000e+00
m.xcp.xm12.msky130_fd_pr__pfet_01v8#sbody = 1.800000e+00
m.xcp.xm13.msky130_fd_pr__pfet_01v8#body = 1.800000e+00
m.xcp.xm13.msky130_fd_pr__pfet_01v8#dbody = 1.800000e+00
m.xcp.xm13.msky130_fd_pr__pfet_01v8#sbody = 1.800000e+00
m.xcp.xm14.msky130_fd_pr__pfet_01v8#body = 1.800000e+00
m.xcp.xm14.msky130_fd_pr__pfet_01v8#dbody = 1.800000e+00
m.xcp.xm14.msky130_fd_pr__pfet_01v8#sbody = 1.800000e+00
up = 0.000000e+00
vdd = 1.800000e+00
vdd#branch = -1.95315e-04
vin_dn#branch = 0.000000e+00
vin_up#branch = 0.000000e+00
vop = 4.000000e-01
vout#branch = -9.94491e-05
xcp.dnb = 2.150077e-07
xcp.nbais = 7.697901e-01
xcp.net1 = 2.060813e-01
xcp.net2 = 2.121383e-01
xcp.net3 = 1.592814e+00
xcp.net4 = 2.037916e-01
xcp.net5 = 3.759324e-01
xcp.net6 = 1.524436e+00
xcp.net7 = 1.623230e+00
xcp.p_bais = 6.603426e-01
xcp.ubp = 1.800000e+00
xcp.vbn = 1.019790e+00
xcp.vbp = 4.113270e-01
xcp.von = 1.485121e+00
xcp.x3.nbais = 7.697901e-01
xcp.x3.net1 = 1.471179e+00
xcp.x3.net2 = 5.514438e-01
xcp.x3.net3 = 1.372956e+00
xcp.x3.net4 = 1.139176e+00
xcp.x3.net5 = 1.831003e-01
xcp.x3.net6 = 1.240757e+00
xcp.x3.net7 = 2.060813e-01
xcp.x3.net8 = 2.121383e-01
xcp.x3.net9 = 1.592814e+00
xcp.x3.p_bais = 6.603426e-01
xcp.x3.vbn = 1.019790e+00
xcp.x3.vbp = 4.113270e-01
i(vout)*1000000 = -9.94491e+01
