Warning: m=xx on .subckt line will override multiplier m hierarchy!

 Reference value :  0.00000e+00
Note: Compatibility modes selected: hs a


Circuit: ** charge pump test bench

option SCALE: Scale is set to 1e-06 for instance and model parameters
Doing analysis at TEMP = 27.000000 and TNOM = 27.000000


No. of Data Rows : 1
dn = 1.800000e+00
m.xcp.x1.xm1.msky130_fd_pr__pfet_01v8#body = 1.800000e+00
m.xcp.x1.xm1.msky130_fd_pr__pfet_01v8#dbody = 1.800000e+00
m.xcp.x1.xm1.msky130_fd_pr__pfet_01v8#sbody = 1.800000e+00
m.xcp.x1.xm2.msky130_fd_pr__nfet_01v8#body = 2.784578e-18
m.xcp.x1.xm2.msky130_fd_pr__nfet_01v8#dbody = 6.959022e-18
m.xcp.x1.xm2.msky130_fd_pr__nfet_01v8#sbody = 1.394714e-18
m.xcp.x2.xm1.msky130_fd_pr__pfet_01v8#body = 1.800000e+00
m.xcp.x2.xm1.msky130_fd_pr__pfet_01v8#dbody = 1.800000e+00
m.xcp.x2.xm1.msky130_fd_pr__pfet_01v8#sbody = 1.800000e+00
m.xcp.x2.xm2.msky130_fd_pr__nfet_01v8#body = 2.784578e-18
m.xcp.x2.xm2.msky130_fd_pr__nfet_01v8#dbody = 6.959022e-18
m.xcp.x2.xm2.msky130_fd_pr__nfet_01v8#sbody = 1.394714e-18
m.xcp.x3.xm1.msky130_fd_pr__nfet_01v8#body = 2.197072e-12
m.xcp.x3.xm1.msky130_fd_pr__nfet_01v8#dbody = 5.492600e-12
m.xcp.x3.xm1.msky130_fd_pr__nfet_01v8#sbody = 1.098616e-12
m.xcp.x3.xm2.msky130_fd_pr__nfet_01v8#body = -1.19495e-89
m.xcp.x3.xm2.msky130_fd_pr__nfet_01v8#dbody = -1.79243e-89
m.xcp.x3.xm2.msky130_fd_pr__nfet_01v8#sbody = -1.79243e-89
m.xcp.x3.xm3.msky130_fd_pr__nfet_01v8#body = 1.461604e-11
m.xcp.x3.xm3.msky130_fd_pr__nfet_01v8#dbody = 3.118876e-11
m.xcp.x3.xm3.msky130_fd_pr__nfet_01v8#sbody = 1.169505e-11
m.xcp.x3.xm4.msky130_fd_pr__nfet_01v8#body = 4.324963e-13
m.xcp.x3.xm4.msky130_fd_pr__nfet_01v8#dbody = 1.081137e-12
m.xcp.x3.xm4.msky130_fd_pr__nfet_01v8#sbody = 2.163522e-13
m.xcp.x3.xm5.msky130_fd_pr__pfet_01v8#body = 1.800000e+00
m.xcp.x3.xm5.msky130_fd_pr__pfet_01v8#dbody = 1.800000e+00
m.xcp.x3.xm5.msky130_fd_pr__pfet_01v8#sbody = 1.800000e+00
m.xcp.x3.xm6.msky130_fd_pr__pfet_01v8#body = 1.800000e+00
m.xcp.x3.xm6.msky130_fd_pr__pfet_01v8#dbody = 1.800000e+00
m.xcp.x3.xm6.msky130_fd_pr__pfet_01v8#sbody = 1.800000e+00
m.xcp.x3.xm7.msky130_fd_pr__pfet_01v8#body = 1.800000e+00
m.xcp.x3.xm7.msky130_fd_pr__pfet_01v8#dbody = 1.800000e+00
m.xcp.x3.xm7.msky130_fd_pr__pfet_01v8#sbody = 1.800000e+00
m.xcp.x3.xm8.msky130_fd_pr__pfet_01v8#body = 1.800000e+00
m.xcp.x3.xm8.msky130_fd_pr__pfet_01v8#dbody = 1.800000e+00
m.xcp.x3.xm8.msky130_fd_pr__pfet_01v8#sbody = 1.800000e+00
m.xcp.x3.xm9.msky130_fd_pr__nfet_01v8#body = 2.603118e-12
m.xcp.x3.xm9.msky130_fd_pr__nfet_01v8#dbody = 6.507757e-12
m.xcp.x3.xm9.msky130_fd_pr__nfet_01v8#sbody = 1.301598e-12
m.xcp.x3.xm10.msky130_fd_pr__nfet_01v8#body = 2.678840e-12
m.xcp.x3.xm10.msky130_fd_pr__nfet_01v8#dbody = 6.697061e-12
m.xcp.x3.xm10.msky130_fd_pr__nfet_01v8#sbody = 1.339459e-12
m.xcp.x3.xm11.msky130_fd_pr__nfet_01v8#body = 1.696706e-11
m.xcp.x3.xm11.msky130_fd_pr__nfet_01v8#dbody = 4.241644e-11
m.xcp.x3.xm11.msky130_fd_pr__nfet_01v8#sbody = 8.484046e-12
m.xcp.x3.xm12.msky130_fd_pr__nfet_01v8#body = 2.762694e-11
m.xcp.x3.xm12.msky130_fd_pr__nfet_01v8#dbody = 5.005247e-11
m.xcp.x3.xm12.msky130_fd_pr__nfet_01v8#sbody = 1.381399e-11
m.xcp.x3.xm13.msky130_fd_pr__nfet_01v8#body = 2.651388e-16
m.xcp.x3.xm13.msky130_fd_pr__nfet_01v8#dbody = 6.628379e-16
m.xcp.x3.xm13.msky130_fd_pr__nfet_01v8#sbody = 1.325786e-16
m.xcp.x3.xm14.msky130_fd_pr__pfet_01v8#body = 1.800000e+00
m.xcp.x3.xm14.msky130_fd_pr__pfet_01v8#dbody = 1.800000e+00
m.xcp.x3.xm14.msky130_fd_pr__pfet_01v8#sbody = 1.800000e+00
m.xcp.x3.xm15.msky130_fd_pr__pfet_01v8#body = 1.800000e+00
m.xcp.x3.xm15.msky130_fd_pr__pfet_01v8#dbody = 1.800000e+00
m.xcp.x3.xm15.msky130_fd_pr__pfet_01v8#sbody = 1.800000e+00
m.xcp.x3.xm16.msky130_fd_pr__nfet_01v8#body = 7.771862e-12
m.xcp.x3.xm16.msky130_fd_pr__nfet_01v8#dbody = 1.422338e-11
m.xcp.x3.xm16.msky130_fd_pr__nfet_01v8#sbody = 9.092201e-12
m.xcp.x3.xm17.msky130_fd_pr__nfet_01v8#body = 1.232837e-11
m.xcp.x3.xm17.msky130_fd_pr__nfet_01v8#dbody = 2.546322e-11
m.xcp.x3.xm17.msky130_fd_pr__nfet_01v8#sbody = 1.152190e-11
m.xcp.x3.xm18.msky130_fd_pr__pfet_01v8#body = 1.800000e+00
m.xcp.x3.xm18.msky130_fd_pr__pfet_01v8#dbody = 1.800000e+00
m.xcp.x3.xNote: No ".plot", ".print", or ".fourier" lines; no simulations run
m18.msky130_fd_pr__pfet_01v8#sbody = 1.800000e+00
m.xcp.x3.xm19.msky130_fd_pr__pfet_01v8#body = 1.800000e+00
m.xcp.x3.xm19.msky130_fd_pr__pfet_01v8#dbody = 1.800000e+00
m.xcp.x3.xm19.msky130_fd_pr__pfet_01v8#sbody = 1.800000e+00
m.xcp.x3.xm20.msky130_fd_pr__pfet_01v8#body = 1.800000e+00
m.xcp.x3.xm20.msky130_fd_pr__pfet_01v8#dbody = 1.800000e+00
m.xcp.x3.xm20.msky130_fd_pr__pfet_01v8#sbody = 1.800000e+00
m.xcp.xm1.msky130_fd_pr__nfet_01v8#body = 2.603118e-12
m.xcp.xm1.msky130_fd_pr__nfet_01v8#dbody = 6.507757e-12
m.xcp.xm1.msky130_fd_pr__nfet_01v8#sbody = 1.301598e-12
m.xcp.xm2.msky130_fd_pr__nfet_01v8#body = 2.678840e-12
m.xcp.xm2.msky130_fd_pr__nfet_01v8#dbody = 6.697061e-12
m.xcp.xm2.msky130_fd_pr__nfet_01v8#sbody = 1.339459e-12
m.xcp.xm3.msky130_fd_pr__nfet_01v8#body = 7.771862e-12
m.xcp.xm3.msky130_fd_pr__nfet_01v8#dbody = 1.422338e-11
m.xcp.xm3.msky130_fd_pr__nfet_01v8#sbody = 9.092201e-12
m.xcp.xm4.msky130_fd_pr__nfet_01v8#body = 1.232837e-11
m.xcp.xm4.msky130_fd_pr__nfet_01v8#dbody = 2.546322e-11
m.xcp.xm4.msky130_fd_pr__nfet_01v8#sbody = 1.152190e-11
m.xcp.xm5.msky130_fd_pr__pfet_01v8#body = 1.800000e+00
m.xcp.xm5.msky130_fd_pr__pfet_01v8#dbody = 1.800000e+00
m.xcp.xm5.msky130_fd_pr__pfet_01v8#sbody = 1.800000e+00
m.xcp.xm6.msky130_fd_pr__pfet_01v8#body = 1.800000e+00
m.xcp.xm6.msky130_fd_pr__pfet_01v8#dbody = 1.800000e+00
m.xcp.xm6.msky130_fd_pr__pfet_01v8#sbody = 1.800000e+00
m.xcp.xm7.msky130_fd_pr__nfet_01v8#body = 2.574493e-12
m.xcp.xm7.msky130_fd_pr__nfet_01v8#dbody = 6.436193e-12
m.xcp.xm7.msky130_fd_pr__nfet_01v8#sbody = 1.287285e-12
m.xcp.xm8.msky130_fd_pr__nfet_01v8#body = 7.300804e-12
m.xcp.xm8.msky130_fd_pr__nfet_01v8#dbody = 1.310299e-11
m.xcp.xm8.msky130_fd_pr__nfet_01v8#sbody = 8.799421e-12
m.xcp.xm9.msky130_fd_pr__nfet_01v8#body = 5.206014e-12
m.xcp.xm9.msky130_fd_pr__nfet_01v8#dbody = 3.514108e-12
m.xcp.xm9.msky130_fd_pr__nfet_01v8#sbody = 1.210393e-11
m.xcp.xm10.msky130_fd_pr__nfet_01v8#body = 9.801771e-12
m.xcp.xm10.msky130_fd_pr__nfet_01v8#dbody = 1.500332e-11
m.xcp.xm10.msky130_fd_pr__nfet_01v8#sbody = 1.440199e-11
m.xcp.xm11.msky130_fd_pr__pfet_01v8#body = 1.800000e+00
m.xcp.xm11.msky130_fd_pr__pfet_01v8#dbody = 1.800000e+00
m.xcp.xm11.msky130_fd_pr__pfet_01v8#sbody = 1.800000e+00
m.xcp.xm12.msky130_fd_pr__pfet_01v8#body = 1.800000e+00
m.xcp.xm12.msky130_fd_pr__pfet_01v8#dbody = 1.800000e+00
m.xcp.xm12.msky130_fd_pr__pfet_01v8#sbody = 1.800000e+00
m.xcp.xm13.msky130_fd_pr__pfet_01v8#body = 1.800000e+00
m.xcp.xm13.msky130_fd_pr__pfet_01v8#dbody = 1.800000e+00
m.xcp.xm13.msky130_fd_pr__pfet_01v8#sbody = 1.800000e+00
m.xcp.xm14.msky130_fd_pr__pfet_01v8#body = 1.800000e+00
m.xcp.xm14.msky130_fd_pr__pfet_01v8#dbody = 1.800000e+00
m.xcp.xm14.msky130_fd_pr__pfet_01v8#sbody = 1.800000e+00
up = 1.800000e+00
vdd = 1.800000e+00
vdd#branch = -1.97683e-04
vin_dn#branch = 0.000000e+00
vin_up#branch = 0.000000e+00
vop = 4.000000e-01
vout#branch = 2.544608e-08
xcp.dnb = 2.150077e-07
xcp.nbais = 7.697901e-01
xcp.net1 = 2.060813e-01
xcp.net2 = 2.121383e-01
xcp.net3 = 1.592814e+00
xcp.net4 = 2.037916e-01
xcp.net5 = 3.759324e-01
xcp.net6 = 1.041756e+00
xcp.net7 = 1.595296e+00
xcp.p_bais = 6.603426e-01
xcp.ubp = 2.150077e-07
xcp.vbn = 1.019790e+00
xcp.vbp = 4.113270e-01
xcp.von = 3.383169e-02
xcp.x3.nbais = 7.697901e-01
xcp.x3.net1 = 1.448353e+00
xcp.x3.net2 = 1.991734e-05
xcp.x3.net3 = 1.356110e+00
xcp.x3.net4 = 9.540270e-01
xcp.x3.net5 = 1.742774e-01
xcp.x3.net6 = 9.228715e-01
xcp.x3.net7 = 2.060813e-01
xcp.x3.net8 = 2.121383e-01
xcp.x3.net9 = 1.592814e+00
xcp.x3.p_bais = 6.603426e-01
xcp.x3.vbn = 1.019790e+00
xcp.x3.vbp = 4.113270e-01
i(vout)*1000000 = 2.544608e-02
