Warning: m=xx on .subckt line will override multiplier m hierarchy!

 Reference value :  0.00000e+00
Note: Compatibility modes selected: hs a


Circuit: ** charge pump test bench

option SCALE: Scale is set to 1e-06 for instance and model parameters
Doing analysis at TEMP = 27.000000 and TNOM = 27.000000


No. of Data Rows : 1
dn = 1.800000e+00
m.xcp.x1.xm1.msky130_fd_pr__pfet_01v8#body = 1.800000e+00
m.xcp.x1.xm1.msky130_fd_pr__pfet_01v8#dbody = 1.800000e+00
m.xcp.x1.xm1.msky130_fd_pr__pfet_01v8#sbody = 1.800000e+00
m.xcp.x1.xm2.msky130_fd_pr__nfet_01v8#body = 2.251934e-11
m.xcp.x1.xm2.msky130_fd_pr__nfet_01v8#dbody = 5.628984e-11
m.xcp.x1.xm2.msky130_fd_pr__nfet_01v8#sbody = 1.125967e-11
m.xcp.x2.xm1.msky130_fd_pr__pfet_01v8#body = 1.800000e+00
m.xcp.x2.xm1.msky130_fd_pr__pfet_01v8#dbody = 1.800000e+00
m.xcp.x2.xm1.msky130_fd_pr__pfet_01v8#sbody = 1.800000e+00
m.xcp.x2.xm2.msky130_fd_pr__nfet_01v8#body = 2.784578e-18
m.xcp.x2.xm2.msky130_fd_pr__nfet_01v8#dbody = 6.959022e-18
m.xcp.x2.xm2.msky130_fd_pr__nfet_01v8#sbody = 1.394714e-18
m.xcp.x3.xm1.msky130_fd_pr__nfet_01v8#body = 3.144119e-12
m.xcp.x3.xm1.msky130_fd_pr__nfet_01v8#dbody = 7.860279e-12
m.xcp.x3.xm1.msky130_fd_pr__nfet_01v8#sbody = 1.572077e-12
m.xcp.x3.xm2.msky130_fd_pr__nfet_01v8#body = -1.67607e-68
m.xcp.x3.xm2.msky130_fd_pr__nfet_01v8#dbody = -2.51410e-68
m.xcp.x3.xm2.msky130_fd_pr__nfet_01v8#sbody = -2.51410e-68
m.xcp.x3.xm3.msky130_fd_pr__nfet_01v8#body = 1.221986e-11
m.xcp.x3.xm3.msky130_fd_pr__nfet_01v8#dbody = 2.426863e-11
m.xcp.x3.xm3.msky130_fd_pr__nfet_01v8#sbody = 1.239095e-11
m.xcp.x3.xm4.msky130_fd_pr__nfet_01v8#body = 1.794859e-07
m.xcp.x3.xm4.msky130_fd_pr__nfet_01v8#dbody = 8.978247e-08
m.xcp.x3.xm4.msky130_fd_pr__nfet_01v8#sbody = 8.974295e-08
m.xcp.x3.xm5.msky130_fd_pr__pfet_01v8#body = 1.800000e+00
m.xcp.x3.xm5.msky130_fd_pr__pfet_01v8#dbody = 1.800000e+00
m.xcp.x3.xm5.msky130_fd_pr__pfet_01v8#sbody = 1.800000e+00
m.xcp.x3.xm6.msky130_fd_pr__pfet_01v8#body = 1.800000e+00
m.xcp.x3.xm6.msky130_fd_pr__pfet_01v8#dbody = 1.800000e+00
m.xcp.x3.xm6.msky130_fd_pr__pfet_01v8#sbody = 1.800000e+00
m.xcp.x3.xm7.msky130_fd_pr__pfet_01v8#body = 1.800000e+00
m.xcp.x3.xm7.msky130_fd_pr__pfet_01v8#dbody = 1.800000e+00
m.xcp.x3.xm7.msky130_fd_pr__pfet_01v8#sbody = 1.800000e+00
m.xcp.x3.xm8.msky130_fd_pr__pfet_01v8#body = 1.800000e+00
m.xcp.x3.xm8.msky130_fd_pr__pfet_01v8#dbody = 1.800000e+00
m.xcp.x3.xm8.msky130_fd_pr__pfet_01v8#sbody = 1.800000e+00
m.xcp.x3.xm9.msky130_fd_pr__nfet_01v8#body = 2.603118e-12
m.xcp.x3.xm9.msky130_fd_pr__nfet_01v8#dbody = 6.507757e-12
m.xcp.x3.xm9.msky130_fd_pr__nfet_01v8#sbody = 1.301598e-12
m.xcp.x3.xm10.msky130_fd_pr__nfet_01v8#body = 2.678840e-12
m.xcp.x3.xm10.msky130_fd_pr__nfet_01v8#dbody = 6.697061e-12
m.xcp.x3.xm10.msky130_fd_pr__nfet_01v8#sbody = 1.339459e-12
m.xcp.x3.xm11.msky130_fd_pr__nfet_01v8#body = 4.012357e-11
m.xcp.x3.xm11.msky130_fd_pr__nfet_01v8#dbody = 5.999596e-11
m.xcp.x3.xm11.msky130_fd_pr__nfet_01v8#sbody = 3.745855e-11
m.xcp.x3.xm12.msky130_fd_pr__nfet_01v8#body = 2.478325e-11
m.xcp.x3.xm12.msky130_fd_pr__nfet_01v8#dbody = 4.456103e-11
m.xcp.x3.xm12.msky130_fd_pr__nfet_01v8#sbody = 2.978839e-11
m.xcp.x3.xm13.msky130_fd_pr__nfet_01v8#body = 8.710456e-12
m.xcp.x3.xm13.msky130_fd_pr__nfet_01v8#dbody = 2.177602e-11
m.xcp.x3.xm13.msky130_fd_pr__nfet_01v8#sbody = 4.355270e-12
m.xcp.x3.xm14.msky130_fd_pr__pfet_01v8#body = 1.800000e+00
m.xcp.x3.xm14.msky130_fd_pr__pfet_01v8#dbody = 1.800000e+00
m.xcp.x3.xm14.msky130_fd_pr__pfet_01v8#sbody = 1.800000e+00
m.xcp.x3.xm15.msky130_fd_pr__pfet_01v8#body = 1.800000e+00
m.xcp.x3.xm15.msky130_fd_pr__pfet_01v8#dbody = 1.800000e+00
m.xcp.x3.xm15.msky130_fd_pr__pfet_01v8#sbody = 1.800000e+00
m.xcp.x3.xm16.msky130_fd_pr__nfet_01v8#body = 7.771862e-12
m.xcp.x3.xm16.msky130_fd_pr__nfet_01v8#dbody = 1.422338e-11
m.xcp.x3.xm16.msky130_fd_pr__nfet_01v8#sbody = 9.092201e-12
m.xcp.x3.xm17.msky130_fd_pr__nfet_01v8#body = 1.232837e-11
m.xcp.x3.xm17.msky130_fd_pr__nfet_01v8#dbody = 2.546322e-11
m.xcp.x3.xm17.msky130_fd_pr__nfet_01v8#sbody = 1.152190e-11
m.xcp.x3.xm18.msky130_fd_pr__pfet_01v8#body = 1.800000e+00
m.xcp.x3.xm18.msky130_fd_pr__pfet_01v8#dbody = 1.800000e+00
m.xcp.x3.xNote: No ".plot", ".print", or ".fourier" lines; no simulations run
m18.msky130_fd_pr__pfet_01v8#sbody = 1.800000e+00
m.xcp.x3.xm19.msky130_fd_pr__pfet_01v8#body = 1.800000e+00
m.xcp.x3.xm19.msky130_fd_pr__pfet_01v8#dbody = 1.800000e+00
m.xcp.x3.xm19.msky130_fd_pr__pfet_01v8#sbody = 1.800000e+00
m.xcp.x3.xm20.msky130_fd_pr__pfet_01v8#body = 1.800000e+00
m.xcp.x3.xm20.msky130_fd_pr__pfet_01v8#dbody = 1.800000e+00
m.xcp.x3.xm20.msky130_fd_pr__pfet_01v8#sbody = 1.800000e+00
m.xcp.xm1.msky130_fd_pr__nfet_01v8#body = 2.603118e-12
m.xcp.xm1.msky130_fd_pr__nfet_01v8#dbody = 6.507757e-12
m.xcp.xm1.msky130_fd_pr__nfet_01v8#sbody = 1.301598e-12
m.xcp.xm2.msky130_fd_pr__nfet_01v8#body = 2.678840e-12
m.xcp.xm2.msky130_fd_pr__nfet_01v8#dbody = 6.697061e-12
m.xcp.xm2.msky130_fd_pr__nfet_01v8#sbody = 1.339459e-12
m.xcp.xm3.msky130_fd_pr__nfet_01v8#body = 7.771862e-12
m.xcp.xm3.msky130_fd_pr__nfet_01v8#dbody = 1.422338e-11
m.xcp.xm3.msky130_fd_pr__nfet_01v8#sbody = 9.092201e-12
m.xcp.xm4.msky130_fd_pr__nfet_01v8#body = 1.232837e-11
m.xcp.xm4.msky130_fd_pr__nfet_01v8#dbody = 2.546322e-11
m.xcp.xm4.msky130_fd_pr__nfet_01v8#sbody = 1.152190e-11
m.xcp.xm5.msky130_fd_pr__pfet_01v8#body = 1.800000e+00
m.xcp.xm5.msky130_fd_pr__pfet_01v8#dbody = 1.800000e+00
m.xcp.xm5.msky130_fd_pr__pfet_01v8#sbody = 1.800000e+00
m.xcp.xm6.msky130_fd_pr__pfet_01v8#body = 1.800000e+00
m.xcp.xm6.msky130_fd_pr__pfet_01v8#dbody = 1.800000e+00
m.xcp.xm6.msky130_fd_pr__pfet_01v8#sbody = 1.800000e+00
m.xcp.xm7.msky130_fd_pr__nfet_01v8#body = 2.687488e-12
m.xcp.xm7.msky130_fd_pr__nfet_01v8#dbody = 6.718682e-12
m.xcp.xm7.msky130_fd_pr__nfet_01v8#sbody = 1.343783e-12
m.xcp.xm8.msky130_fd_pr__nfet_01v8#body = 1.346380e-11
m.xcp.xm8.msky130_fd_pr__nfet_01v8#dbody = 2.828449e-11
m.xcp.xm8.msky130_fd_pr__nfet_01v8#sbody = 1.210691e-11
m.xcp.xm9.msky130_fd_pr__nfet_01v8#body = 3.059704e-11
m.xcp.xm9.msky130_fd_pr__nfet_01v8#dbody = 5.489166e-11
m.xcp.xm9.msky130_fd_pr__nfet_01v8#sbody = 3.689945e-11
m.xcp.xm10.msky130_fd_pr__nfet_01v8#body = 3.124698e-11
m.xcp.xm10.msky130_fd_pr__nfet_01v8#dbody = 5.572592e-11
m.xcp.xm10.msky130_fd_pr__nfet_01v8#sbody = 3.722460e-11
m.xcp.xm11.msky130_fd_pr__pfet_01v8#body = 1.800000e+00
m.xcp.xm11.msky130_fd_pr__pfet_01v8#dbody = 1.800000e+00
m.xcp.xm11.msky130_fd_pr__pfet_01v8#sbody = 1.800000e+00
m.xcp.xm12.msky130_fd_pr__pfet_01v8#body = 1.800000e+00
m.xcp.xm12.msky130_fd_pr__pfet_01v8#dbody = 1.800000e+00
m.xcp.xm12.msky130_fd_pr__pfet_01v8#sbody = 1.800000e+00
m.xcp.xm13.msky130_fd_pr__pfet_01v8#body = 1.800000e+00
m.xcp.xm13.msky130_fd_pr__pfet_01v8#dbody = 1.800000e+00
m.xcp.xm13.msky130_fd_pr__pfet_01v8#sbody = 1.800000e+00
m.xcp.xm14.msky130_fd_pr__pfet_01v8#body = 1.800000e+00
m.xcp.xm14.msky130_fd_pr__pfet_01v8#dbody = 1.800000e+00
m.xcp.xm14.msky130_fd_pr__pfet_01v8#sbody = 1.800000e+00
up = 0.000000e+00
vdd = 1.800000e+00
vdd#branch = -1.76851e-04
vin_dn#branch = 0.000000e+00
vin_up#branch = 0.000000e+00
vop = 1.600000e+00
vout#branch = -1.00043e-04
xcp.dnb = 2.150077e-07
xcp.nbais = 7.697901e-01
xcp.net1 = 2.060813e-01
xcp.net2 = 2.121383e-01
xcp.net3 = 1.592814e+00
xcp.net4 = 2.128301e-01
xcp.net5 = 8.599325e-01
xcp.net6 = 1.611408e+00
xcp.net7 = 1.668620e+00
xcp.p_bais = 6.603426e-01
xcp.ubp = 1.800000e+00
xcp.vbn = 1.019790e+00
xcp.vbp = 4.113270e-01
xcp.von = 1.579621e+00
xcp.x3.nbais = 7.697901e-01
xcp.x3.net1 = 1.285573e+00
xcp.x3.net2 = 6.946607e-01
xcp.x3.net3 = 1.596164e+00
xcp.x3.net4 = 7.251423e-01
xcp.x3.net5 = 2.500339e-01
xcp.x3.net6 = 1.799775e+00
xcp.x3.net7 = 2.060813e-01
xcp.x3.net8 = 2.121383e-01
xcp.x3.net9 = 1.592814e+00
xcp.x3.p_bais = 6.603426e-01
xcp.x3.vbn = 1.019790e+00
xcp.x3.vbp = 4.113270e-01
i(vout)*1000000 = -1.00043e+02
