Warning: m=xx on .subckt line will override multiplier m hierarchy!

 Reference value :  0.00000e+00
Note: Compatibility modes selected: hs a


Circuit: ** charge pump test bench

option SCALE: Scale is set to 1e-06 for instance and model parameters
Doing analysis at TEMP = 27.000000 and TNOM = 27.000000


No. of Data Rows : 1
dn = 1.800000e+00
m.xcp.x1.xm1.msky130_fd_pr__pfet_01v8#body = 1.800000e+00
m.xcp.x1.xm1.msky130_fd_pr__pfet_01v8#dbody = 1.800000e+00
m.xcp.x1.xm1.msky130_fd_pr__pfet_01v8#sbody = 1.800000e+00
m.xcp.x1.xm2.msky130_fd_pr__nfet_01v8#body = 2.784578e-18
m.xcp.x1.xm2.msky130_fd_pr__nfet_01v8#dbody = 6.959022e-18
m.xcp.x1.xm2.msky130_fd_pr__nfet_01v8#sbody = 1.394714e-18
m.xcp.x2.xm1.msky130_fd_pr__pfet_01v8#body = 1.800000e+00
m.xcp.x2.xm1.msky130_fd_pr__pfet_01v8#dbody = 1.800000e+00
m.xcp.x2.xm1.msky130_fd_pr__pfet_01v8#sbody = 1.800000e+00
m.xcp.x2.xm2.msky130_fd_pr__nfet_01v8#body = 2.784578e-18
m.xcp.x2.xm2.msky130_fd_pr__nfet_01v8#dbody = 6.959022e-18
m.xcp.x2.xm2.msky130_fd_pr__nfet_01v8#sbody = 1.394714e-18
m.xcp.x3.xm1.msky130_fd_pr__nfet_01v8#body = 1.944822e-12
m.xcp.x3.xm1.msky130_fd_pr__nfet_01v8#dbody = 4.862054e-12
m.xcp.x3.xm1.msky130_fd_pr__nfet_01v8#sbody = 9.724108e-13
m.xcp.x3.xm2.msky130_fd_pr__nfet_01v8#body = 1.378138e-195
m.xcp.x3.xm2.msky130_fd_pr__nfet_01v8#dbody = 2.067207e-195
m.xcp.x3.xm2.msky130_fd_pr__nfet_01v8#sbody = 2.067207e-195
m.xcp.x3.xm3.msky130_fd_pr__nfet_01v8#body = 3.882470e-12
m.xcp.x3.xm3.msky130_fd_pr__nfet_01v8#dbody = 5.823706e-12
m.xcp.x3.xm3.msky130_fd_pr__nfet_01v8#sbody = 5.823705e-12
m.xcp.x3.xm4.msky130_fd_pr__nfet_01v8#body = 4.324986e-13
m.xcp.x3.xm4.msky130_fd_pr__nfet_01v8#dbody = 1.081142e-12
m.xcp.x3.xm4.msky130_fd_pr__nfet_01v8#sbody = 2.163534e-13
m.xcp.x3.xm5.msky130_fd_pr__pfet_01v8#body = 1.800000e+00
m.xcp.x3.xm5.msky130_fd_pr__pfet_01v8#dbody = 1.800000e+00
m.xcp.x3.xm5.msky130_fd_pr__pfet_01v8#sbody = 1.800000e+00
m.xcp.x3.xm6.msky130_fd_pr__pfet_01v8#body = 1.800000e+00
m.xcp.x3.xm6.msky130_fd_pr__pfet_01v8#dbody = 1.800000e+00
m.xcp.x3.xm6.msky130_fd_pr__pfet_01v8#sbody = 1.800000e+00
m.xcp.x3.xm7.msky130_fd_pr__pfet_01v8#body = 1.800000e+00
m.xcp.x3.xm7.msky130_fd_pr__pfet_01v8#dbody = 1.800000e+00
m.xcp.x3.xm7.msky130_fd_pr__pfet_01v8#sbody = 1.800000e+00
m.xcp.x3.xm8.msky130_fd_pr__pfet_01v8#body = 1.800000e+00
m.xcp.x3.xm8.msky130_fd_pr__pfet_01v8#dbody = 1.800000e+00
m.xcp.x3.xm8.msky130_fd_pr__pfet_01v8#sbody = 1.800000e+00
m.xcp.x3.xm9.msky130_fd_pr__nfet_01v8#body = 2.603118e-12
m.xcp.x3.xm9.msky130_fd_pr__nfet_01v8#dbody = 6.507757e-12
m.xcp.x3.xm9.msky130_fd_pr__nfet_01v8#sbody = 1.301598e-12
m.xcp.x3.xm10.msky130_fd_pr__nfet_01v8#body = 2.678840e-12
m.xcp.x3.xm10.msky130_fd_pr__nfet_01v8#dbody = 6.697061e-12
m.xcp.x3.xm10.msky130_fd_pr__nfet_01v8#sbody = 1.339459e-12
m.xcp.x3.xm11.msky130_fd_pr__nfet_01v8#body = 1.811358e-11
m.xcp.x3.xm11.msky130_fd_pr__nfet_01v8#dbody = 4.298970e-11
m.xcp.x3.xm11.msky130_fd_pr__nfet_01v8#sbody = 1.135102e-11
m.xcp.x3.xm12.msky130_fd_pr__nfet_01v8#body = 2.443820e-12
m.xcp.x3.xm12.msky130_fd_pr__nfet_01v8#dbody = 3.815208e-12
m.xcp.x3.xm12.msky130_fd_pr__nfet_01v8#sbody = 3.516252e-12
m.xcp.x3.xm13.msky130_fd_pr__nfet_01v8#body = 1.158390e-12
m.xcp.x3.xm13.msky130_fd_pr__nfet_01v8#dbody = 2.895946e-12
m.xcp.x3.xm13.msky130_fd_pr__nfet_01v8#sbody = 5.792240e-13
m.xcp.x3.xm14.msky130_fd_pr__pfet_01v8#body = 1.800000e+00
m.xcp.x3.xm14.msky130_fd_pr__pfet_01v8#dbody = 1.800000e+00
m.xcp.x3.xm14.msky130_fd_pr__pfet_01v8#sbody = 1.800000e+00
m.xcp.x3.xm15.msky130_fd_pr__pfet_01v8#body = 1.800000e+00
m.xcp.x3.xm15.msky130_fd_pr__pfet_01v8#dbody = 1.800000e+00
m.xcp.x3.xm15.msky130_fd_pr__pfet_01v8#sbody = 1.800000e+00
m.xcp.x3.xm16.msky130_fd_pr__nfet_01v8#body = 7.771862e-12
m.xcp.x3.xm16.msky130_fd_pr__nfet_01v8#dbody = 1.422338e-11
m.xcp.x3.xm16.msky130_fd_pr__nfet_01v8#sbody = 9.092201e-12
m.xcp.x3.xm17.msky130_fd_pr__nfet_01v8#body = 1.232837e-11
m.xcp.x3.xm17.msky130_fd_pr__nfet_01v8#dbody = 2.546322e-11
m.xcp.x3.xm17.msky130_fd_pr__nfet_01v8#sbody = 1.152190e-11
m.xcp.x3.xm18.msky130_fd_pr__pfet_01v8#body = 1.800000e+00
m.xcp.x3.xm18.msky130_fd_pr__pfet_01v8#dbody = 1.800000e+00
m.xcp.xNote: No ".plot", ".print", or ".fourier" lines; no simulations run
3.xm18.msky130_fd_pr__pfet_01v8#sbody = 1.800000e+00
m.xcp.x3.xm19.msky130_fd_pr__pfet_01v8#body = 1.800000e+00
m.xcp.x3.xm19.msky130_fd_pr__pfet_01v8#dbody = 1.800000e+00
m.xcp.x3.xm19.msky130_fd_pr__pfet_01v8#sbody = 1.800000e+00
m.xcp.x3.xm20.msky130_fd_pr__pfet_01v8#body = 1.800000e+00
m.xcp.x3.xm20.msky130_fd_pr__pfet_01v8#dbody = 1.800000e+00
m.xcp.x3.xm20.msky130_fd_pr__pfet_01v8#sbody = 1.800000e+00
m.xcp.xm1.msky130_fd_pr__nfet_01v8#body = 2.603118e-12
m.xcp.xm1.msky130_fd_pr__nfet_01v8#dbody = 6.507757e-12
m.xcp.xm1.msky130_fd_pr__nfet_01v8#sbody = 1.301598e-12
m.xcp.xm2.msky130_fd_pr__nfet_01v8#body = 2.678840e-12
m.xcp.xm2.msky130_fd_pr__nfet_01v8#dbody = 6.697061e-12
m.xcp.xm2.msky130_fd_pr__nfet_01v8#sbody = 1.339459e-12
m.xcp.xm3.msky130_fd_pr__nfet_01v8#body = 7.771862e-12
m.xcp.xm3.msky130_fd_pr__nfet_01v8#dbody = 1.422338e-11
m.xcp.xm3.msky130_fd_pr__nfet_01v8#sbody = 9.092201e-12
m.xcp.xm4.msky130_fd_pr__nfet_01v8#body = 1.232837e-11
m.xcp.xm4.msky130_fd_pr__nfet_01v8#dbody = 2.546322e-11
m.xcp.xm4.msky130_fd_pr__nfet_01v8#sbody = 1.152190e-11
m.xcp.xm5.msky130_fd_pr__pfet_01v8#body = 1.800000e+00
m.xcp.xm5.msky130_fd_pr__pfet_01v8#dbody = 1.800000e+00
m.xcp.xm5.msky130_fd_pr__pfet_01v8#sbody = 1.800000e+00
m.xcp.xm6.msky130_fd_pr__pfet_01v8#body = 1.800000e+00
m.xcp.xm6.msky130_fd_pr__pfet_01v8#dbody = 1.800000e+00
m.xcp.xm6.msky130_fd_pr__pfet_01v8#sbody = 1.800000e+00
m.xcp.xm7.msky130_fd_pr__nfet_01v8#body = 2.688004e-12
m.xcp.xm7.msky130_fd_pr__nfet_01v8#dbody = 6.719971e-12
m.xcp.xm7.msky130_fd_pr__nfet_01v8#sbody = 1.344041e-12
m.xcp.xm8.msky130_fd_pr__nfet_01v8#body = 1.353679e-11
m.xcp.xm8.msky130_fd_pr__nfet_01v8#dbody = 2.846592e-11
m.xcp.xm8.msky130_fd_pr__nfet_01v8#sbody = 1.214444e-11
m.xcp.xm9.msky130_fd_pr__nfet_01v8#body = 1.132848e-11
m.xcp.xm9.msky130_fd_pr__nfet_01v8#dbody = 6.575349e-12
m.xcp.xm9.msky130_fd_pr__nfet_01v8#sbody = 2.741010e-11
m.xcp.xm10.msky130_fd_pr__nfet_01v8#body = 4.109236e-11
m.xcp.xm10.msky130_fd_pr__nfet_01v8#dbody = 6.314862e-11
m.xcp.xm10.msky130_fd_pr__nfet_01v8#sbody = 4.229222e-11
m.xcp.xm11.msky130_fd_pr__pfet_01v8#body = 1.800000e+00
m.xcp.xm11.msky130_fd_pr__pfet_01v8#dbody = 1.800000e+00
m.xcp.xm11.msky130_fd_pr__pfet_01v8#sbody = 1.800000e+00
m.xcp.xm12.msky130_fd_pr__pfet_01v8#body = 1.800000e+00
m.xcp.xm12.msky130_fd_pr__pfet_01v8#dbody = 1.800000e+00
m.xcp.xm12.msky130_fd_pr__pfet_01v8#sbody = 1.800000e+00
m.xcp.xm13.msky130_fd_pr__pfet_01v8#body = 1.800000e+00
m.xcp.xm13.msky130_fd_pr__pfet_01v8#dbody = 1.800000e+00
m.xcp.xm13.msky130_fd_pr__pfet_01v8#sbody = 1.800000e+00
m.xcp.xm14.msky130_fd_pr__pfet_01v8#body = 1.800000e+00
m.xcp.xm14.msky130_fd_pr__pfet_01v8#dbody = 1.800000e+00
m.xcp.xm14.msky130_fd_pr__pfet_01v8#sbody = 1.800000e+00
up = 1.800000e+00
vdd = 1.800000e+00
vdd#branch = -1.55374e-04
vin_dn#branch = 0.000000e+00
vin_up#branch = 0.000000e+00
vop = 1.700000e+00
vout#branch = -4.41938e-05
xcp.dnb = 2.150077e-07
xcp.nbais = 7.697901e-01
xcp.net1 = 2.060813e-01
xcp.net2 = 2.121383e-01
xcp.net3 = 1.592814e+00
xcp.net4 = 2.128713e-01
xcp.net5 = 8.657298e-01
xcp.net6 = 1.717238e+00
xcp.net7 = 1.740225e+00
xcp.p_bais = 6.603426e-01
xcp.ubp = 2.150077e-07
xcp.vbn = 1.019790e+00
xcp.vbp = 4.113270e-01
xcp.von = 3.383187e-02
xcp.x3.nbais = 7.697901e-01
xcp.x3.net1 = 1.025858e-01
xcp.x3.net2 = 9.064294e-02
xcp.x3.net3 = 1.356110e+00
xcp.x3.net4 = 1.541042e-01
xcp.x3.net5 = 1.541042e-01
xcp.x3.net6 = 9.230051e-01
xcp.x3.net7 = 2.060813e-01
xcp.x3.net8 = 2.121383e-01
xcp.x3.net9 = 1.592814e+00
xcp.x3.p_bais = 6.603426e-01
xcp.x3.vbn = 1.019790e+00
xcp.x3.vbp = 4.113270e-01
i(vout)*1000000 = -4.41938e+01
