Warning: m=xx on .subckt line will override multiplier m hierarchy!

 Reference value :  0.00000e+00
Note: Compatibility modes selected: hs a


Circuit: ** charge pump test bench

option SCALE: Scale is set to 1e-06 for instance and model parameters
Doing analysis at TEMP = 27.000000 and TNOM = 27.000000


No. of Data Rows : 1
dn = 1.800000e+00
m.xcp.x1.xm1.msky130_fd_pr__pfet_01v8#body = 1.800000e+00
m.xcp.x1.xm1.msky130_fd_pr__pfet_01v8#dbody = 1.800000e+00
m.xcp.x1.xm1.msky130_fd_pr__pfet_01v8#sbody = 1.800000e+00
m.xcp.x1.xm2.msky130_fd_pr__nfet_01v8#body = 2.784578e-18
m.xcp.x1.xm2.msky130_fd_pr__nfet_01v8#dbody = 6.959022e-18
m.xcp.x1.xm2.msky130_fd_pr__nfet_01v8#sbody = 1.394714e-18
m.xcp.x2.xm1.msky130_fd_pr__pfet_01v8#body = 1.800000e+00
m.xcp.x2.xm1.msky130_fd_pr__pfet_01v8#dbody = 1.800000e+00
m.xcp.x2.xm1.msky130_fd_pr__pfet_01v8#sbody = 1.800000e+00
m.xcp.x2.xm2.msky130_fd_pr__nfet_01v8#body = 2.784578e-18
m.xcp.x2.xm2.msky130_fd_pr__nfet_01v8#dbody = 6.959022e-18
m.xcp.x2.xm2.msky130_fd_pr__nfet_01v8#sbody = 1.394714e-18
m.xcp.x3.xm1.msky130_fd_pr__nfet_01v8#body = 2.220878e-12
m.xcp.x3.xm1.msky130_fd_pr__nfet_01v8#dbody = 5.552102e-12
m.xcp.x3.xm1.msky130_fd_pr__nfet_01v8#sbody = 1.110531e-12
m.xcp.x3.xm2.msky130_fd_pr__nfet_01v8#body = 1.961968e-66
m.xcp.x3.xm2.msky130_fd_pr__nfet_01v8#dbody = 2.942951e-66
m.xcp.x3.xm2.msky130_fd_pr__nfet_01v8#sbody = 2.942951e-66
m.xcp.x3.xm3.msky130_fd_pr__nfet_01v8#body = 1.610132e-11
m.xcp.x3.xm3.msky130_fd_pr__nfet_01v8#dbody = 3.290945e-11
m.xcp.x3.xm3.msky130_fd_pr__nfet_01v8#sbody = 1.248530e-11
m.xcp.x3.xm4.msky130_fd_pr__nfet_01v8#body = 4.324962e-13
m.xcp.x3.xm4.msky130_fd_pr__nfet_01v8#dbody = 1.081137e-12
m.xcp.x3.xm4.msky130_fd_pr__nfet_01v8#sbody = 2.163522e-13
m.xcp.x3.xm5.msky130_fd_pr__pfet_01v8#body = 1.800000e+00
m.xcp.x3.xm5.msky130_fd_pr__pfet_01v8#dbody = 1.800000e+00
m.xcp.x3.xm5.msky130_fd_pr__pfet_01v8#sbody = 1.800000e+00
m.xcp.x3.xm6.msky130_fd_pr__pfet_01v8#body = 1.800000e+00
m.xcp.x3.xm6.msky130_fd_pr__pfet_01v8#dbody = 1.800000e+00
m.xcp.x3.xm6.msky130_fd_pr__pfet_01v8#sbody = 1.800000e+00
m.xcp.x3.xm7.msky130_fd_pr__pfet_01v8#body = 1.800000e+00
m.xcp.x3.xm7.msky130_fd_pr__pfet_01v8#dbody = 1.800000e+00
m.xcp.x3.xm7.msky130_fd_pr__pfet_01v8#sbody = 1.800000e+00
m.xcp.x3.xm8.msky130_fd_pr__pfet_01v8#body = 1.800000e+00
m.xcp.x3.xm8.msky130_fd_pr__pfet_01v8#dbody = 1.800000e+00
m.xcp.x3.xm8.msky130_fd_pr__pfet_01v8#sbody = 1.800000e+00
m.xcp.x3.xm9.msky130_fd_pr__nfet_01v8#body = 2.603118e-12
m.xcp.x3.xm9.msky130_fd_pr__nfet_01v8#dbody = 6.507757e-12
m.xcp.x3.xm9.msky130_fd_pr__nfet_01v8#sbody = 1.301598e-12
m.xcp.x3.xm10.msky130_fd_pr__nfet_01v8#body = 2.678840e-12
m.xcp.x3.xm10.msky130_fd_pr__nfet_01v8#dbody = 6.697061e-12
m.xcp.x3.xm10.msky130_fd_pr__nfet_01v8#sbody = 1.339459e-12
m.xcp.x3.xm11.msky130_fd_pr__nfet_01v8#body = 1.696680e-11
m.xcp.x3.xm11.msky130_fd_pr__nfet_01v8#dbody = 4.241631e-11
m.xcp.x3.xm11.msky130_fd_pr__nfet_01v8#sbody = 8.483402e-12
m.xcp.x3.xm12.msky130_fd_pr__nfet_01v8#body = 1.818035e-11
m.xcp.x3.xm12.msky130_fd_pr__nfet_01v8#dbody = 4.544160e-11
m.xcp.x3.xm12.msky130_fd_pr__nfet_01v8#sbody = 9.090174e-12
m.xcp.x3.xm13.msky130_fd_pr__nfet_01v8#body = 1.455967e-19
m.xcp.x3.xm13.msky130_fd_pr__nfet_01v8#dbody = 3.639868e-19
m.xcp.x3.xm13.msky130_fd_pr__nfet_01v8#sbody = 7.280337e-20
m.xcp.x3.xm14.msky130_fd_pr__pfet_01v8#body = 1.800000e+00
m.xcp.x3.xm14.msky130_fd_pr__pfet_01v8#dbody = 1.800000e+00
m.xcp.x3.xm14.msky130_fd_pr__pfet_01v8#sbody = 1.800000e+00
m.xcp.x3.xm15.msky130_fd_pr__pfet_01v8#body = 1.800000e+00
m.xcp.x3.xm15.msky130_fd_pr__pfet_01v8#dbody = 1.800000e+00
m.xcp.x3.xm15.msky130_fd_pr__pfet_01v8#sbody = 1.800000e+00
m.xcp.x3.xm16.msky130_fd_pr__nfet_01v8#body = 7.771862e-12
m.xcp.x3.xm16.msky130_fd_pr__nfet_01v8#dbody = 1.422338e-11
m.xcp.x3.xm16.msky130_fd_pr__nfet_01v8#sbody = 9.092201e-12
m.xcp.x3.xm17.msky130_fd_pr__nfet_01v8#body = 1.232837e-11
m.xcp.x3.xm17.msky130_fd_pr__nfet_01v8#dbody = 2.546322e-11
m.xcp.x3.xm17.msky130_fd_pr__nfet_01v8#sbody = 1.152190e-11
m.xcp.x3.xm18.msky130_fd_pr__pfet_01v8#body = 1.800000e+00
m.xcp.x3.xm18.msky130_fd_pr__pfet_01v8#dbody = 1.800000e+00
m.xcp.x3.xNote: No ".plot", ".print", or ".fourier" lines; no simulations run
m18.msky130_fd_pr__pfet_01v8#sbody = 1.800000e+00
m.xcp.x3.xm19.msky130_fd_pr__pfet_01v8#body = 1.800000e+00
m.xcp.x3.xm19.msky130_fd_pr__pfet_01v8#dbody = 1.800000e+00
m.xcp.x3.xm19.msky130_fd_pr__pfet_01v8#sbody = 1.800000e+00
m.xcp.x3.xm20.msky130_fd_pr__pfet_01v8#body = 1.800000e+00
m.xcp.x3.xm20.msky130_fd_pr__pfet_01v8#dbody = 1.800000e+00
m.xcp.x3.xm20.msky130_fd_pr__pfet_01v8#sbody = 1.800000e+00
m.xcp.xm1.msky130_fd_pr__nfet_01v8#body = 2.603118e-12
m.xcp.xm1.msky130_fd_pr__nfet_01v8#dbody = 6.507757e-12
m.xcp.xm1.msky130_fd_pr__nfet_01v8#sbody = 1.301598e-12
m.xcp.xm2.msky130_fd_pr__nfet_01v8#body = 2.678840e-12
m.xcp.xm2.msky130_fd_pr__nfet_01v8#dbody = 6.697061e-12
m.xcp.xm2.msky130_fd_pr__nfet_01v8#sbody = 1.339459e-12
m.xcp.xm3.msky130_fd_pr__nfet_01v8#body = 7.771862e-12
m.xcp.xm3.msky130_fd_pr__nfet_01v8#dbody = 1.422338e-11
m.xcp.xm3.msky130_fd_pr__nfet_01v8#sbody = 9.092201e-12
m.xcp.xm4.msky130_fd_pr__nfet_01v8#body = 1.232837e-11
m.xcp.xm4.msky130_fd_pr__nfet_01v8#dbody = 2.546322e-11
m.xcp.xm4.msky130_fd_pr__nfet_01v8#sbody = 1.152190e-11
m.xcp.xm5.msky130_fd_pr__pfet_01v8#body = 1.800000e+00
m.xcp.xm5.msky130_fd_pr__pfet_01v8#dbody = 1.800000e+00
m.xcp.xm5.msky130_fd_pr__pfet_01v8#sbody = 1.800000e+00
m.xcp.xm6.msky130_fd_pr__pfet_01v8#body = 1.800000e+00
m.xcp.xm6.msky130_fd_pr__pfet_01v8#dbody = 1.800000e+00
m.xcp.xm6.msky130_fd_pr__pfet_01v8#sbody = 1.800000e+00
m.xcp.xm7.msky130_fd_pr__nfet_01v8#body = 8.431031e-13
m.xcp.xm7.msky130_fd_pr__nfet_01v8#dbody = 2.107734e-12
m.xcp.xm7.msky130_fd_pr__nfet_01v8#sbody = 4.215749e-13
m.xcp.xm8.msky130_fd_pr__nfet_01v8#body = 1.988488e-12
m.xcp.xm8.msky130_fd_pr__nfet_01v8#dbody = 3.284994e-12
m.xcp.xm8.msky130_fd_pr__nfet_01v8#sbody = 2.680471e-12
m.xcp.xm9.msky130_fd_pr__nfet_01v8#body = 1.623431e-12
m.xcp.xm9.msky130_fd_pr__nfet_01v8#dbody = 1.722817e-12
m.xcp.xm9.msky130_fd_pr__nfet_01v8#sbody = 3.147477e-12
m.xcp.xm10.msky130_fd_pr__nfet_01v8#body = 2.466611e-12
m.xcp.xm10.msky130_fd_pr__nfet_01v8#dbody = 3.830656e-12
m.xcp.xm10.msky130_fd_pr__nfet_01v8#sbody = 3.569178e-12
m.xcp.xm11.msky130_fd_pr__pfet_01v8#body = 1.800000e+00
m.xcp.xm11.msky130_fd_pr__pfet_01v8#dbody = 1.800000e+00
m.xcp.xm11.msky130_fd_pr__pfet_01v8#sbody = 1.800000e+00
m.xcp.xm12.msky130_fd_pr__pfet_01v8#body = 1.800000e+00
m.xcp.xm12.msky130_fd_pr__pfet_01v8#dbody = 1.800000e+00
m.xcp.xm12.msky130_fd_pr__pfet_01v8#sbody = 1.800000e+00
m.xcp.xm13.msky130_fd_pr__pfet_01v8#body = 1.800000e+00
m.xcp.xm13.msky130_fd_pr__pfet_01v8#dbody = 1.800000e+00
m.xcp.xm13.msky130_fd_pr__pfet_01v8#sbody = 1.800000e+00
m.xcp.xm14.msky130_fd_pr__pfet_01v8#body = 1.800000e+00
m.xcp.xm14.msky130_fd_pr__pfet_01v8#dbody = 1.800000e+00
m.xcp.xm14.msky130_fd_pr__pfet_01v8#sbody = 1.800000e+00
up = 1.800000e+00
vdd = 1.800000e+00
vdd#branch = -1.97697e-04
vin_dn#branch = 0.000000e+00
vin_up#branch = 0.000000e+00
vop = 1.000000e-01
vout#branch = 3.890191e-05
xcp.dnb = 2.150077e-07
xcp.nbais = 7.697901e-01
xcp.net1 = 2.060813e-01
xcp.net2 = 2.121383e-01
xcp.net3 = 1.592814e+00
xcp.net4 = 6.558120e-02
xcp.net5 = 8.960723e-02
xcp.net6 = 1.007670e+00
xcp.net7 = 1.595039e+00
xcp.p_bais = 6.603426e-01
xcp.ubp = 2.150077e-07
xcp.vbn = 1.019790e+00
xcp.vbp = 4.113270e-01
xcp.von = 3.383169e-02
xcp.x3.nbais = 7.697901e-01
xcp.x3.net1 = 1.452850e+00
xcp.x3.net2 = 1.093709e-08
xcp.x3.net3 = 1.356110e+00
xcp.x3.net4 = 9.931491e-01
xcp.x3.net5 = 1.761814e-01
xcp.x3.net6 = 9.092110e-01
xcp.x3.net7 = 2.060813e-01
xcp.x3.net8 = 2.121383e-01
xcp.x3.net9 = 1.592814e+00
xcp.x3.p_bais = 6.603426e-01
xcp.x3.vbn = 1.019790e+00
xcp.x3.vbp = 4.113270e-01
i(vout)*1000000 = 3.890191e+01
