Warning: m=xx on .subckt line will override multiplier m hierarchy!

 Reference value :  0.00000e+00
Note: Compatibility modes selected: hs a


Circuit: ** charge pump test bench

option SCALE: Scale is set to 1e-06 for instance and model parameters
Doing analysis at TEMP = 27.000000 and TNOM = 27.000000


No. of Data Rows : 1
dn = 0.000000e+00
m.xcp.x1.xm1.msky130_fd_pr__pfet_01v8#body = 1.800000e+00
m.xcp.x1.xm1.msky130_fd_pr__pfet_01v8#dbody = 1.800000e+00
m.xcp.x1.xm1.msky130_fd_pr__pfet_01v8#sbody = 1.800000e+00
m.xcp.x1.xm2.msky130_fd_pr__nfet_01v8#body = 2.251934e-11
m.xcp.x1.xm2.msky130_fd_pr__nfet_01v8#dbody = 5.628984e-11
m.xcp.x1.xm2.msky130_fd_pr__nfet_01v8#sbody = 1.125967e-11
m.xcp.x2.xm1.msky130_fd_pr__pfet_01v8#body = 1.800000e+00
m.xcp.x2.xm1.msky130_fd_pr__pfet_01v8#dbody = 1.800000e+00
m.xcp.x2.xm1.msky130_fd_pr__pfet_01v8#sbody = 1.800000e+00
m.xcp.x2.xm2.msky130_fd_pr__nfet_01v8#body = 2.251934e-11
m.xcp.x2.xm2.msky130_fd_pr__nfet_01v8#dbody = 5.628984e-11
m.xcp.x2.xm2.msky130_fd_pr__nfet_01v8#sbody = 1.125967e-11
m.xcp.x3.xm1.msky130_fd_pr__nfet_01v8#body = 2.293084e-12
m.xcp.x3.xm1.msky130_fd_pr__nfet_01v8#dbody = 5.732577e-12
m.xcp.x3.xm1.msky130_fd_pr__nfet_01v8#sbody = 1.146675e-12
m.xcp.x3.xm2.msky130_fd_pr__nfet_01v8#body = 9.132010e-151
m.xcp.x3.xm2.msky130_fd_pr__nfet_01v8#dbody = 1.369801e-150
m.xcp.x3.xm2.msky130_fd_pr__nfet_01v8#sbody = 1.369801e-150
m.xcp.x3.xm3.msky130_fd_pr__nfet_01v8#body = 4.030916e-11
m.xcp.x3.xm3.msky130_fd_pr__nfet_01v8#dbody = 4.804602e-11
m.xcp.x3.xm3.msky130_fd_pr__nfet_01v8#sbody = 2.473363e-11
m.xcp.x3.xm4.msky130_fd_pr__nfet_01v8#body = 1.643995e-12
m.xcp.x3.xm4.msky130_fd_pr__nfet_01v8#dbody = 4.109682e-12
m.xcp.x3.xm4.msky130_fd_pr__nfet_01v8#sbody = 8.223044e-13
m.xcp.x3.xm5.msky130_fd_pr__pfet_01v8#body = 1.800000e+00
m.xcp.x3.xm5.msky130_fd_pr__pfet_01v8#dbody = 1.800000e+00
m.xcp.x3.xm5.msky130_fd_pr__pfet_01v8#sbody = 1.800000e+00
m.xcp.x3.xm6.msky130_fd_pr__pfet_01v8#body = 1.800000e+00
m.xcp.x3.xm6.msky130_fd_pr__pfet_01v8#dbody = 1.800000e+00
m.xcp.x3.xm6.msky130_fd_pr__pfet_01v8#sbody = 1.800000e+00
m.xcp.x3.xm7.msky130_fd_pr__pfet_01v8#body = 1.800000e+00
m.xcp.x3.xm7.msky130_fd_pr__pfet_01v8#dbody = 1.800000e+00
m.xcp.x3.xm7.msky130_fd_pr__pfet_01v8#sbody = 1.800000e+00
m.xcp.x3.xm8.msky130_fd_pr__pfet_01v8#body = 1.800000e+00
m.xcp.x3.xm8.msky130_fd_pr__pfet_01v8#dbody = 1.800000e+00
m.xcp.x3.xm8.msky130_fd_pr__pfet_01v8#sbody = 1.800000e+00
m.xcp.x3.xm9.msky130_fd_pr__nfet_01v8#body = 2.603118e-12
m.xcp.x3.xm9.msky130_fd_pr__nfet_01v8#dbody = 6.507757e-12
m.xcp.x3.xm9.msky130_fd_pr__nfet_01v8#sbody = 1.301598e-12
m.xcp.x3.xm10.msky130_fd_pr__nfet_01v8#body = 2.678840e-12
m.xcp.x3.xm10.msky130_fd_pr__nfet_01v8#dbody = 6.697061e-12
m.xcp.x3.xm10.msky130_fd_pr__nfet_01v8#sbody = 1.339459e-12
m.xcp.x3.xm11.msky130_fd_pr__nfet_01v8#body = 1.708555e-11
m.xcp.x3.xm11.msky130_fd_pr__nfet_01v8#dbody = 4.270475e-11
m.xcp.x3.xm11.msky130_fd_pr__nfet_01v8#sbody = 8.542776e-12
m.xcp.x3.xm12.msky130_fd_pr__nfet_01v8#body = 1.836243e-11
m.xcp.x3.xm12.msky130_fd_pr__nfet_01v8#dbody = 4.590528e-11
m.xcp.x3.xm12.msky130_fd_pr__nfet_01v8#sbody = 9.181218e-12
m.xcp.x3.xm13.msky130_fd_pr__nfet_01v8#body = 2.606230e-19
m.xcp.x3.xm13.msky130_fd_pr__nfet_01v8#dbody = 6.515485e-19
m.xcp.x3.xm13.msky130_fd_pr__nfet_01v8#sbody = 1.303205e-19
m.xcp.x3.xm14.msky130_fd_pr__pfet_01v8#body = 1.800000e+00
m.xcp.x3.xm14.msky130_fd_pr__pfet_01v8#dbody = 1.800000e+00
m.xcp.x3.xm14.msky130_fd_pr__pfet_01v8#sbody = 1.800000e+00
m.xcp.x3.xm15.msky130_fd_pr__pfet_01v8#body = 1.800000e+00
m.xcp.x3.xm15.msky130_fd_pr__pfet_01v8#dbody = 1.800000e+00
m.xcp.x3.xm15.msky130_fd_pr__pfet_01v8#sbody = 1.800000e+00
m.xcp.x3.xm16.msky130_fd_pr__nfet_01v8#body = 7.771862e-12
m.xcp.x3.xm16.msky130_fd_pr__nfet_01v8#dbody = 1.422338e-11
m.xcp.x3.xm16.msky130_fd_pr__nfet_01v8#sbody = 9.092201e-12
m.xcp.x3.xm17.msky130_fd_pr__nfet_01v8#body = 1.232837e-11
m.xcp.x3.xm17.msky130_fd_pr__nfet_01v8#dbody = 2.546322e-11
m.xcp.x3.xm17.msky130_fd_pr__nfet_01v8#sbody = 1.152190e-11
m.xcp.x3.xm18.msky130_fd_pr__pfet_01v8#body = 1.800000e+00
m.xcp.x3.xm18.msky130_fd_pr__pfet_01v8#dbody = 1.800000e+00
m.xcp.xNote: No ".plot", ".print", or ".fourier" lines; no simulations run
3.xm18.msky130_fd_pr__pfet_01v8#sbody = 1.800000e+00
m.xcp.x3.xm19.msky130_fd_pr__pfet_01v8#body = 1.800000e+00
m.xcp.x3.xm19.msky130_fd_pr__pfet_01v8#dbody = 1.800000e+00
m.xcp.x3.xm19.msky130_fd_pr__pfet_01v8#sbody = 1.800000e+00
m.xcp.x3.xm20.msky130_fd_pr__pfet_01v8#body = 1.800000e+00
m.xcp.x3.xm20.msky130_fd_pr__pfet_01v8#dbody = 1.800000e+00
m.xcp.x3.xm20.msky130_fd_pr__pfet_01v8#sbody = 1.800000e+00
m.xcp.xm1.msky130_fd_pr__nfet_01v8#body = 2.603118e-12
m.xcp.xm1.msky130_fd_pr__nfet_01v8#dbody = 6.507757e-12
m.xcp.xm1.msky130_fd_pr__nfet_01v8#sbody = 1.301598e-12
m.xcp.xm2.msky130_fd_pr__nfet_01v8#body = 2.678840e-12
m.xcp.xm2.msky130_fd_pr__nfet_01v8#dbody = 6.697061e-12
m.xcp.xm2.msky130_fd_pr__nfet_01v8#sbody = 1.339459e-12
m.xcp.xm3.msky130_fd_pr__nfet_01v8#body = 7.771862e-12
m.xcp.xm3.msky130_fd_pr__nfet_01v8#dbody = 1.422338e-11
m.xcp.xm3.msky130_fd_pr__nfet_01v8#sbody = 9.092201e-12
m.xcp.xm4.msky130_fd_pr__nfet_01v8#body = 1.232837e-11
m.xcp.xm4.msky130_fd_pr__nfet_01v8#dbody = 2.546322e-11
m.xcp.xm4.msky130_fd_pr__nfet_01v8#sbody = 1.152190e-11
m.xcp.xm5.msky130_fd_pr__pfet_01v8#body = 1.800000e+00
m.xcp.xm5.msky130_fd_pr__pfet_01v8#dbody = 1.800000e+00
m.xcp.xm5.msky130_fd_pr__pfet_01v8#sbody = 1.800000e+00
m.xcp.xm6.msky130_fd_pr__pfet_01v8#body = 1.800000e+00
m.xcp.xm6.msky130_fd_pr__pfet_01v8#dbody = 1.800000e+00
m.xcp.xm6.msky130_fd_pr__pfet_01v8#sbody = 1.800000e+00
m.xcp.xm7.msky130_fd_pr__nfet_01v8#body = 1.095891e-12
m.xcp.xm7.msky130_fd_pr__nfet_01v8#dbody = 2.739700e-12
m.xcp.xm7.msky130_fd_pr__nfet_01v8#sbody = 5.479735e-13
m.xcp.xm8.msky130_fd_pr__nfet_01v8#body = 2.591675e-12
m.xcp.xm8.msky130_fd_pr__nfet_01v8#dbody = 4.287380e-12
m.xcp.xm8.msky130_fd_pr__nfet_01v8#sbody = 3.487644e-12
m.xcp.xm9.msky130_fd_pr__nfet_01v8#body = 3.198699e-12
m.xcp.xm9.msky130_fd_pr__nfet_01v8#dbody = 4.958181e-12
m.xcp.xm9.msky130_fd_pr__nfet_01v8#sbody = 4.637916e-12
m.xcp.xm10.msky130_fd_pr__nfet_01v8#body = 1.519217e-12
m.xcp.xm10.msky130_fd_pr__nfet_01v8#dbody = 7.596087e-13
m.xcp.xm10.msky130_fd_pr__nfet_01v8#sbody = 3.798044e-12
m.xcp.xm11.msky130_fd_pr__pfet_01v8#body = 1.800000e+00
m.xcp.xm11.msky130_fd_pr__pfet_01v8#dbody = 1.800000e+00
m.xcp.xm11.msky130_fd_pr__pfet_01v8#sbody = 1.800000e+00
m.xcp.xm12.msky130_fd_pr__pfet_01v8#body = 1.800000e+00
m.xcp.xm12.msky130_fd_pr__pfet_01v8#dbody = 1.800000e+00
m.xcp.xm12.msky130_fd_pr__pfet_01v8#sbody = 1.800000e+00
m.xcp.xm13.msky130_fd_pr__pfet_01v8#body = 1.800000e+00
m.xcp.xm13.msky130_fd_pr__pfet_01v8#dbody = 1.800000e+00
m.xcp.xm13.msky130_fd_pr__pfet_01v8#sbody = 1.800000e+00
m.xcp.xm14.msky130_fd_pr__pfet_01v8#body = 1.800000e+00
m.xcp.xm14.msky130_fd_pr__pfet_01v8#dbody = 1.800000e+00
m.xcp.xm14.msky130_fd_pr__pfet_01v8#sbody = 1.800000e+00
up = 0.000000e+00
vdd = 1.800000e+00
vdd#branch = -1.97652e-04
vin_dn#branch = 0.000000e+00
vin_up#branch = 0.000000e+00
vop = 0.000000e+00
vout#branch = 3.135710e-12
xcp.dnb = 1.800000e+00
xcp.nbais = 7.697901e-01
xcp.net1 = 2.060813e-01
xcp.net2 = 2.121383e-01
xcp.net3 = 1.592814e+00
xcp.net4 = 8.566621e-02
xcp.net5 = 1.175547e-01
xcp.net6 = 1.011069e+00
xcp.net7 = 1.595064e+00
xcp.p_bais = 6.603426e-01
xcp.ubp = 1.800000e+00
xcp.vbn = 1.019790e+00
xcp.vbp = 4.113270e-01
xcp.von = 1.303371e-01
xcp.x3.nbais = 7.697901e-01
xcp.x3.net1 = 1.467756e+00
xcp.x3.net2 = 1.957775e-08
xcp.x3.net3 = 1.365273e+00
xcp.x3.net4 = 1.114455e+00
xcp.x3.net5 = 1.819566e-01
xcp.x3.net6 = 9.035945e-01
xcp.x3.net7 = 2.060813e-01
xcp.x3.net8 = 2.121383e-01
xcp.x3.net9 = 1.592814e+00
xcp.x3.p_bais = 6.603426e-01
xcp.x3.vbn = 1.019790e+00
xcp.x3.vbp = 4.113270e-01
i(vout)*1000000 = 3.135710e-06
