
Note: No compatibility mode selected!


Circuit: ** sch_path: /home/monem/simulations/divider_tb.sch

Doing analysis at TEMP = -40.000000 and TNOM = 27.000000

Warning: v1: no DC value, transient time 0 value used
Note: Starting dynamic gmin stepping
Trying gmin =   1.0000E-03 Warning: Further gmin increment
Trying gmin =   5.6234E-03 Note: One successful gmin step
Trying gmin =   2.3714E-03 Note: One successful gmin step
Trying gmin =   6.4938E-04 Note: One successful gmin step
Trying gmin =   9.3057E-05 Note: One successful gmin step
Trying gmin =   1.3335E-05 Warning: Further gmin increment
Trying gmin =   5.7255E-05 Warning: Further gmin increment
Trying gmin =   8.2417E-05 Note: One successful gmin step
Trying gmin =   6.8693E-05 Note: One successful gmin step
Trying gmin =   5.2271E-05 Note: One successful gmin step
Trying gmin =   3.9775E-05 Note: One successful gmin step
Trying gmin =   2.6402E-05 Note: One successful gmin step
Trying gmin =   1.4278E-05 Note: One successful gmin step
Trying gmin =   5.6782E-06 Note: One successful gmin step
Trying gmin =   1.4241E-06 Note: One successful gmin step
Trying gmin =   1.7886E-07 Note: One successful gmin step
Trying gmin =   1.7886E-08 Note: One successful gmin step
Trying gmin =   1.7886E-09 Note: One successful gmin step
Trying gmin =   1.7886E-10 Note: One successful gmin step
Trying gmin =   1.7886E-11 Note: One successful gmin step
Trying gmin =   1.7886E-12 Note: One successful gmin step
Trying gmin =   1.0000E-12 Note: One successful gmin step
Note: Dynamic gmin stepping completed

Initial Transient Solution
--------------------------

Node                                   Voltage
----                                   -------
vdd                                        1.8
p2                                           0
p4                                         1.8
p1                                           0
p3                                           0
p5                                           0
p6                                           0
p0                                           0
p7                                           0
x1.x1.x2.net1                              1.8
x1.net1                            5.38559e-08
x1.net2                            2.61528e-08
x1.x1.x2.x1.net1                     0.0207589
x1.x1.net3                         2.72791e-08
x1.x1.net1                                 1.8
x1.x1.net2                                 1.8
x1.x1.x3.net1                       2.6928e-08
fin                                        0.9
x1.x1.x4.net1                         0.663754
x1.x1.x4.net2                      2.32499e-13
opennet                                    1.8
x1.x1.fib                             0.211149
x1.x1.x1.net2                          1.76803
x1.x1.x1.net4                      5.80941e-08
x1.x1.x1.net1                      4.70922e-08
x1.x1.x1.net5                         0.160388
x1.x1.x1.net3                        0.0117889
x1.x1.x6.net2                          1.76803
x1.x1.x6.net4                      3.15173e-08
x1.x1.x6.net1                      4.70922e-08
x1.x1.x6.net5                         0.160388
x1.x1.x6.net3                        0.0117889
x1.x2.x2.net1                      5.27207e-08
x1.net3                                    1.8
x1.net4                                    1.8
x1.x2.x2.x1.net1                   2.63604e-08
x1.x2.net3                                 1.8
x1.x2.net1                         2.61528e-08
x1.x2.net2                                 1.8
x1.x2.x3.net1                      9.61205e-12
x1.x2.x4.net1                       0.00680094
x1.x2.x4.net2                      5.70563e-05
x1.x2.fib                                  1.8
x1.x2.x1.net2                              1.8
x1.x2.x1.net4                      7.95906e-08
x1.x2.x1.net1                      5.30594e-08
x1.x2.x1.net5                              1.8
x1.x2.x1.net3                              1.8
x1.x2.x6.net2                              1.8
x1.x2.x6.net4                      7.95906e-08
x1.x2.x6.net1                      5.30594e-08
x1.x2.x6.net5                              1.8
x1.x2.x6.net3                              1.8
x1.x3.x2.net1                              1.8
x1.net5                            5.41764e-08
x1.net6                            2.61528e-08
x1.x3.x2.x1.net1                     0.0207593
x1.x3.net3                         2.75971e-08
x1.x3.net1                                 1.8
x1.x3.net2                                 1.8
x1.x3.x3.net1                      2.70882e-08
x1.x3.x4.net1                          1.42352
x1.x3.x4.net2                      7.53662e-13
x1.x3.fib                          2.61529e-08
x1.x3.x1.net2                              1.8
x1.x3.x1.net4                      5.52453e-08
x1.x3.x1.net1                      2.68463e-08
x1.x3.x1.net5                      7.95907e-08
x1.x3.x1.net3                      5.30595e-08
x1.x3.x6.net2                              1.8
x1.x3.x6.net4                       2.8666e-08
x1.x3.x6.net1                      2.68463e-08
x1.x3.x6.net5                      7.95907e-08
x1.x3.x6.net3                      5.30595e-08
x1.x4.x2.net1                      5.27207e-08
x1.net7                                    1.8
x1.net8                                    1.8
x1.x4.x2.x1.net1                   2.63604e-08
x1.x4.net3                                 1.8
x1.x4.net1                         2.61528e-08
x1.x4.net2                                 1.8
x1.x4.x3.net1                      9.61205e-12
x1.x4.x4.net1                       0.00680094
x1.x4.x4.net2                      5.70563e-05
x1.x4.fib                                  1.8
x1.x4.x1.net2                              1.8
x1.x4.x1.net4                      7.95906e-08
x1.x4.x1.net1                      5.30594e-08
x1.x4.x1.net5                              1.8
x1.x4.x1.net3                              1.8
x1.x4.x6.net2                              1.8
x1.x4.x6.net4                      7.95906e-08
x1.x4.x6.net1                      5.30594e-08
x1.x4.x6.net5                              1.8
x1.x4.x6.net3                              1.8
x1.x5.x2.net1                      5.27207e-08
x1.net9                                    1.8
x1.net10                                   1.8
x1.x5.x2.x1.net1                   2.63603e-08
x1.x5.net3                                 1.8
x1.x5.net1                                 1.8
x1.x5.net2                         7.39219e-08
x1.x5.x3.net1                          1.41823
x1.x5.x4.net1                      4.92813e-08
x1.x5.x4.net2                      2.46406e-08
x1.x5.fib                          2.61529e-08
x1.x5.x1.net2                      2.68463e-08
x1.x5.x1.net4                              1.8
x1.x5.x1.net1                              1.8
x1.x5.x1.net5                       2.8666e-08
x1.x5.x1.net3                      2.75971e-08
x1.x5.x6.net2                      2.68463e-08
x1.x5.x6.net4                              1.8
x1.x5.x6.net1                              1.8
x1.x5.x6.net5                       2.8666e-08
x1.x5.x6.net3                      2.75971e-08
x1.x6.x2.net1                              1.8
x1.net11                           5.41764e-08
x1.net12                           2.61528e-08
x1.x6.x2.x1.net1                     0.0207593
x1.x6.net3                         2.75971e-08
x1.x6.net1                                 1.8
x1.x6.net2                                 1.8
x1.x6.x3.net1                      2.70882e-08
x1.x6.x4.net1                           1.4235
x1.x6.x4.net2                      7.53648e-13
x1.x6.fib                          2.61528e-08
x1.x6.x1.net2                              1.8
x1.x6.x1.net4                      5.52453e-08
x1.x6.x1.net1                      2.68463e-08
x1.x6.x1.net5                      7.95906e-08
x1.x6.x1.net3                      5.30594e-08
x1.x6.x6.net2                              1.8
x1.x6.x6.net4                       2.8666e-08
x1.x6.x6.net1                      2.68463e-08
x1.x6.x6.net5                      7.95906e-08
x1.x6.x6.net3                      5.30594e-08
x1.x7.x2.net1                      5.27207e-08
x1.net13                                   1.8
x1.net14                                   1.8
x1.x7.x2.x1.net1                   2.63604e-08
x1.x7.net3                                 1.8
x1.x7.net1                         2.61528e-08
x1.x7.net2                                 1.8
x1.x7.x3.net1                      9.61205e-12
x1.x7.x4.net1                       0.00680094
x1.x7.x4.net2                      5.70563e-05
x1.x7.fib                                  1.8
x1.x7.x1.net2                              1.8
x1.x7.x1.net4                      7.95906e-08
x1.x7.x1.net1                      5.30594e-08
x1.x7.x1.net5                              1.8
x1.x7.x1.net3                              1.8
x1.x7.x6.net2                              1.8
x1.x7.x6.net4                      7.95906e-08
x1.x7.x6.net1                      5.30594e-08
x1.x7.x6.net5                              1.8
x1.x7.x6.net3                              1.8
x1.x8.x2.net1                              1.8
fout                               5.41764e-08
x1.x8.x2.x1.net1                   9.61206e-12
x1.x8.net3                         2.75971e-08
x1.x8.net1                                 1.8
x1.x8.net2                                 1.8
x1.x8.x3.net1                      2.70882e-08
x1.x8.x4.net1                          1.42347
x1.x8.x4.net2                      7.53623e-13
x1.x8.fib                          2.61529e-08
x1.x8.x1.net2                              1.8
x1.x8.x1.net4                      5.52453e-08
x1.x8.x1.net1                      2.68463e-08
x1.x8.x1.net5                      7.95907e-08
x1.x8.x1.net3                      5.30595e-08
x1.x8.x6.net2                              1.8
x1.x8.x6.net4                       2.8666e-08
x1.x8.x6.net1                      2.68463e-08
x1.x8.x6.net5                      7.95907e-08
x1.x8.x6.net3                      5.30595e-08
v1#branch                                    0
vdd8#branch                                  0
vdd7#branch                                  0
vdd6#branch                                  0
vdd5#branch                                  0
vdd4#branch                                  0
vdd3#branch                                  0
vdd2#branch                                  0
vdd1#branch                                  0
vdd#branch                        -0.000182472


No. of Data Rows : 50008

  Measurements for Transient Analysis

tdiff               =  9.999999e-08 targ=  2.100470e-07 trig=  1.100470e-07
frequency           =  1.00000e+07

Doing analysis at TEMP = -40.000000 and TNOM = 27.000000

Warning: v1: no DC value, transient time 0 value used

  Measurements for Transient Analysis

tdiff               =  9.999999e-08 targ=  2.100470e-07 trig=  1.100470e-07
Netlist line no. 27:
insertnumber: fails.
  s = ".measure tran frequency param=    1.000000108496574e+07   " u="  1.000000108496574e+07  " id=0
frequency           =  1.00000e+07


Total analysis time (seconds) = 284.697

Total elapsed time (seconds) = 356.032 

Total DRAM available = 5052.961 MB.
DRAM currently available =  832.266 MB.
Maximum ngspice program size =  860.262 MB.
Current ngspice program size =  842.770 MB.

Shared ngspice pages =   10.574 MB.
Text (code) pages =    5.375 MB.
Stack = 0 bytes.
Library pages =  840.438 MB.

