
Note: No compatibility mode selected!


Circuit: ** sch_path: /home/mohamed/simulations/divider_tb.sch

Doing analysis at TEMP = 27.000000 and TNOM = 27.000000

Warning: v1: no DC value, transient time 0 value used
Note: Starting dynamic gmin stepping
Trying gmin =   1.0000E-03 Note: One successful gmin step
Trying gmin =   1.0000E-04 Note: One successful gmin step
Trying gmin =   1.0000E-05 Note: One successful gmin step
Trying gmin =   3.1623E-06 Warning: Further gmin increment
Trying gmin =   7.4989E-06 Warning: Further gmin increment
Trying gmin =   9.3057E-06 Warning: Further gmin increment
Trying gmin =   9.8217E-06 Note: One successful gmin step
Trying gmin =   9.5602E-06 Warning: Further gmin increment
Trying gmin =   9.7557E-06 Note: One successful gmin step
Trying gmin =   9.6575E-06 Warning: Further gmin increment
Trying gmin =   9.7310E-06 Note: One successful gmin step
Trying gmin =   9.6942E-06 Note: One successful gmin step
Trying gmin =   9.6392E-06 Note: One successful gmin step
Trying gmin =   9.5845E-06 Warning: Further gmin increment
Trying gmin =   9.6255E-06 Note: One successful gmin step
Trying gmin =   9.6049E-06 Warning: Further gmin increment
Trying gmin =   9.6203E-06 Note: One successful gmin step
Trying gmin =   9.6126E-06 Note: One successful gmin step
Trying gmin =   9.6011E-06 Warning: Further gmin increment
Trying gmin =   9.6097E-06 Warning: Further gmin increment
Trying gmin =   9.6119E-06 Note: One successful gmin step
Trying gmin =   9.6108E-06 Note: One successful gmin step
Trying gmin =   9.6092E-06 Warning: Further gmin increment
Trying gmin =   9.6104E-06 Note: One successful gmin step
Trying gmin =   9.6098E-06 Warning: Further gmin increment
Trying gmin =   9.6103E-06 Note: One successful gmin step
Trying gmin =   9.6100E-06 Note: One successful gmin step
Trying gmin =   9.6097E-06 Warning: Last gmin step failed
Warning: Dynamic gmin stepping failed
Note: Starting true gmin stepping
Trying gmin =   1.0000E-03 Note: One successful gmin step
Trying gmin =   1.0000E-04 Note: One successful gmin step
Trying gmin =   1.0000E-05 Warning: Further gmin increment
Trying gmin =   5.6234E-05 Note: One successful gmin step
Trying gmin =   3.1623E-05 Note: One successful gmin step
Trying gmin =   1.3335E-05 Note: One successful gmin step
Trying gmin =   3.6517E-06 Note: One successful gmin step
Trying gmin =   5.2330E-07 Note: One successful gmin step
Trying gmin =   5.2330E-08 Note: One successful gmin step
Trying gmin =   5.2330E-09 Note: One successful gmin step
Trying gmin =   5.2330E-10 Warning: Further gmin increment
Trying gmin =   2.9427E-09 Note: One successful gmin step
Trying gmin =   1.2409E-09 Warning: Further gmin increment
Trying gmin =   2.3714E-09 Note: One successful gmin step
Trying gmin =   1.7154E-09 Note: One successful gmin step
Trying gmin =   1.0554E-09 Warning: Further gmin increment
Trying gmin =   1.5193E-09 Note: One successful gmin step
Trying gmin =   1.2663E-09 Warning: Further gmin increment
Trying gmin =   1.4517E-09 Warning: Further gmin increment
Trying gmin =   1.5021E-09 Note: One successful gmin step
Trying gmin =   1.4767E-09 Note: One successful gmin step
Trying gmin =   1.4393E-09 Warning: Further gmin increment
Trying gmin =   1.4672E-09 Note: One successful gmin step
Trying gmin =   1.4579E-09 Warning: Further gmin increment
Trying gmin =   1.4649E-09 Note: One successful gmin step
Trying gmin =   1.4625E-09 Warning: Further gmin increment
Trying gmin =   1.4643E-09 Warning: Further gmin increment
Trying gmin =   1.4647E-09 Note: One successful gmin step
Trying gmin =   1.4645E-09 Note: One successful gmin step
Trying gmin =   1.4642E-09 Note: One successful gmin step
Trying gmin =   1.4640E-09 Note: One successful gmin step
Trying gmin =   1.4639E-09 Warning: Further gmin increment
Trying gmin =   1.4640E-09 Warning: Last gmin step failed
Warning: True gmin stepping failed
Note: Starting source stepping
Supplies reduced to   0.0000% Note: One successful source step
Supplies reduced to   0.1000% Note: One successful source step
Supplies reduced to   0.2000% Note: One successful source step
Supplies reduced to   0.3500% Note: One successful source step
Supplies reduced to   0.5750% Note: One successful source step
Supplies reduced to   0.9125% Note: One successful source step
Supplies reduced to   1.4188% Note: One successful source step
Supplies reduced to   2.1781% Note: One successful source step
Supplies reduced to   3.3172% Note: One successful source step
Supplies reduced to   5.0258% Note: One successful source step
Supplies reduced to   7.5887% Note: One successful source step
Supplies reduced to  11.4330% Supplies reduced to   7.5887% Note: One successful source step
Supplies reduced to   8.1653% Note: One successful source step
Supplies reduced to   9.0303% Note: One successful source step
Supplies reduced to  10.3278% Note: One successful source step
Supplies reduced to  12.2740% Supplies reduced to  10.3278% Note: One successful source step
Supplies reduced to  10.6197% Note: One successful source step
Supplies reduced to  11.0576% Supplies reduced to  10.6197% Note: One successful source step
Supplies reduced to  10.6854% Note: One successful source step
Supplies reduced to  10.7839% Supplies reduced to  10.6854% Warning: source stepping failed
Note: Transient op started
Note: Transient op finished successfully

Initial Transient Solution
--------------------------

Node                                   Voltage
----                                   -------
vdd                                        1.8
p2                                         1.8
p4                                         1.8
p1                                         1.8
p3                                         1.8
p5                                           0
p6                                           0
p0                                           0
p7                                           0
x1.x5.x2.net1                          1.79996
x1.net1                                1.79989
x1.net4                             -0.0704895
x1.x5.x2.x1.net1                        1.3339
x1.x5.net2                         0.000111732
x1.x5.net3                           -0.191446
x1.x5.net1                             1.80009
x1.x5.x3.net1                      0.000289207
x1.net2                                1.79995
x1.x5.x4.net1                          1.31294
x1.x5.x4.net2                          1.28256
x1.net3                             -0.0205293
x1.x5.fib                          -0.00279726
x1.x5.x1.net1                         0.413175
x1.x5.x1.net3                      0.000811957
x1.x5.x1.net2                      -0.00196901
x1.x5.x1.net4                          1.80233
x1.x5.x1.net5                         0.659203
x1.x5.x6.net1                           1.7999
x1.x5.x6.net3                          1.79886
x1.x5.x6.net2                          1.32438
x1.x5.x6.net4                         0.491654
x1.x5.x6.net5                      0.000388458
x1.x6.x2.net1                          1.79994
x1.net5                           -0.000130415
x1.net6                                    1.8
x1.x6.x2.x1.net1                   0.000220606
x1.x6.net2                        -0.000162636
x1.x6.net3                             1.84101
x1.x6.net1                             1.79992
x1.x6.x3.net1                     -0.000275261
x1.x6.x4.net1                          1.33085
x1.x6.x4.net2                        -0.171535
x1.x6.fib                         -0.000508818
x1.x6.x1.net1                          1.79886
x1.x6.x1.net3                          1.80015
x1.x6.x1.net2                          1.32128
x1.x6.x1.net4                          1.82397
x1.x6.x1.net5                      -0.00272781
x1.x6.x6.net1                          1.79963
x1.x6.x6.net3                          1.80016
x1.x6.x6.net2                          1.32522
x1.x6.x6.net4                         0.507879
x1.x6.x6.net5                       0.00105419
x1.x7.x2.net1                          1.80024
x1.net7                            0.000122569
x1.net8                            0.000164193
x1.x7.x2.x1.net1                    -0.0455614
x1.x7.net2                         1.80769e-05
x1.x7.net3                             1.80005
x1.x7.net1                             1.79993
x1.x7.x3.net1                     -0.000357732
x1.x7.x4.net1                            1.022
x1.x7.x4.net2                       7.3421e-05
x1.x7.fib                              1.79995
x1.x7.x1.net1                           1.8002
x1.x7.x1.net3                        0.0992701
x1.x7.x1.net2                        0.0110929
x1.x7.x1.net4                          1.79994
x1.x7.x1.net5                          1.32298
x1.x7.x6.net1                          1.80004
x1.x7.x6.net3                         0.100155
x1.x7.x6.net2                       -0.0771985
x1.x7.x6.net4                          1.79987
x1.x7.x6.net5                          1.32292
x1.x8.x2.net1                      0.000881424
fout                                   1.80006
x1.x8.x2.x1.net1                   -0.00145624
x1.x8.net2                             1.80015
x1.x8.net3                         0.000404026
x1.x8.net1                             1.80006
x1.x8.x3.net1                       3.4517e-05
x1.x8.x4.net1                          1.03551
x1.x8.x4.net2                       -0.0812563
x1.x8.fib                              1.80023
x1.x8.x1.net1                          1.94407
x1.x8.x1.net3                          1.96363
x1.x8.x1.net2                      0.000428373
x1.x8.x1.net4                         0.407996
x1.x8.x1.net5                     -0.000832938
x1.x8.x6.net1                          1.97692
x1.x8.x6.net3                          1.99392
x1.x8.x6.net2                     -0.000557679
x1.x8.x6.net4                         0.408077
x1.x8.x6.net5                     -0.000349058
x1.x1.x2.net1                          1.80003
x1.x1.x2.x1.net1                       1.33453
x1.x1.net2                         -4.1941e-05
x1.x1.net3                           -0.255359
x1.x1.net1                             1.79944
x1.x1.x3.net1                      -0.00324541
x1.net9                                1.80059
x1.x1.x4.net1                          1.31256
x1.x1.x4.net2                           1.2823
x1.net10                            -0.0610862
x1.x1.fib                            0.0341868
x1.x1.x1.net1                         0.411073
x1.x1.x1.net3                        0.0166523
x1.x1.x1.net2                       0.00546368
x1.x1.x1.net4                          1.79271
x1.x1.x1.net5                        -0.246907
x1.x1.x6.net1                          1.80553
x1.x1.x6.net3                          1.81086
x1.x1.x6.net2                          1.32429
x1.x1.x6.net4                         0.493285
x1.x1.x6.net5                       -0.0052628
x1.x2.x2.net1                          1.79919
x1.x2.x2.x1.net1                       1.33395
x1.x2.net2                         -0.00215245
x1.x2.net3                          -0.0140563
x1.x2.net1                             1.80168
x1.x2.x3.net1                        0.0117889
x1.net11                          -0.000558365
x1.x2.x4.net1                          1.03162
x1.x2.x4.net2                          1.03207
x1.net12                            0.00157919
x1.x2.fib                              1.80258
x1.x2.x1.net1                          0.99721
x1.x2.x1.net3                          1.91439
x1.x2.x1.net2                       0.00418074
x1.x2.x1.net4                         0.402621
x1.x2.x1.net5                      -0.00750228
x1.x2.x6.net1                          1.79455
x1.x2.x6.net3                          1.99912
x1.x2.x6.net2                         0.907757
x1.x2.x6.net4                         0.339898
x1.x2.x6.net5                      0.000749143
x1.x3.x2.net1                          1.80071
x1.x3.x2.x1.net1                      0.916229
x1.x3.net2                         0.000324631
x1.x3.net3                             1.80009
x1.x3.net1                             1.79982
x1.x3.x3.net1                      0.000434526
x1.net13                              0.609441
x1.x3.x4.net1                         0.426872
x1.x3.x4.net2                         0.426886
x1.net14                          -1.20513e-05
x1.x3.fib                               1.7958
x1.x3.x1.net1                          1.80323
x1.x3.x1.net3                         0.458405
x1.x3.x1.net2                         0.265931
x1.x3.x1.net4                          1.80132
x1.x3.x1.net5                          1.16947
x1.x3.x6.net1                          1.80013
x1.x3.x6.net3                          1.82646
x1.x3.x6.net2                         0.425774
x1.x3.x6.net4                         0.765509
x1.x3.x6.net5                      1.21018e-05
x1.x4.x2.net1                          1.79996
x1.x4.x2.x1.net1                      0.442771
x1.x4.net2                        -1.00299e-05
x1.x4.net3                            0.832242
x1.x4.net1                                 1.8
x1.x4.x3.net1                        0.0118894
fin                                        0.9
x1.x4.x4.net1                         0.655789
x1.x4.x4.net2                     -1.06697e-07
opennet                                  1.729
x1.x4.fib                             0.342061
x1.x4.x1.net1                          1.79884
x1.x4.x1.net3                          1.79824
x1.x4.x1.net2                         0.292904
x1.x4.x1.net4                          1.22439
x1.x4.x1.net5                     -4.93661e-06
x1.x4.x6.net1                              1.8
x1.x4.x6.net3                              1.8
x1.x4.x6.net2                         0.584577
x1.x4.x6.net4                          1.72901
x1.x4.x6.net5                     -1.76932e-07
v1#branch                           1.7121e-07
vdd8#branch                        8.88028e-08
vdd7#branch                         1.9995e-08
vdd6#branch                        5.28302e-06
vdd5#branch                        -4.6738e-06
vdd4#branch                       -7.59415e-06
vdd3#branch                        4.00725e-07
vdd2#branch                        5.62894e-06
vdd1#branch                        1.29264e-05
vdd#branch                         0.000138161


No. of Data Rows : 50008

  Measurements for Transient Analysis

tdiff               =  1.000000e-07 targ=  3.884312e-07 trig=  2.884312e-07
f_out               =  1.00000e+07
n                   =  2.26000e+02

ngspice-37 done
