Warning: v1: no DC value, transient time 0 value used
Note: Starting dynamic gmin stepping
Trying gmin =   1.0000E-03 Note: One successful gmin step
Trying gmin =   1.0000E-04 Note: One successful gmin step
Trying gmin =   1.0000E-05 Warning: Further gmin increment
Trying gmin =   5.6234E-05 Warning: Further gmin increment
Trying gmin =   8.6596E-05 Note: One successful gmin step
Trying gmin =   6.9783E-05 Note: One successful gmin step
Trying gmin =   5.6234E-05 Warning: Further gmin increment
Trying gmin =   6.6117E-05 Warning: Further gmin increment
Trying gmin =   6.8848E-05 Note: One successful gmin step
Trying gmin =   6.7469E-05 Note: One successful gmin step
Trying gmin =   6.5451E-05 Note: One successful gmin step
Trying gmin =   6.4465E-05 Note: One successful gmin step
Trying gmin =   6.3014E-05 Note: One successful gmin step
Trying gmin =   6.0899E-05 Note: One successful gmin step
Trying gmin =   5.7857E-05 Note: One successful gmin step
Trying gmin =   5.3578E-05 Note: One successful gmin step
Trying gmin =   4.7745E-05 Note: One successful gmin step
Trying gmin =   4.0165E-05 Note: One successful gmin step
Trying gmin =   3.0990E-05 Note: One successful gmin step
Trying gmin =   2.1003E-05 Note: One successful gmin step
Trying gmin =   1.1718E-05 Note: One successful gmin step
Trying gmin =   4.8837E-06 Note: One successful gmin step
Trying gmin =   1.3139E-06 Note: One successful gmin step
Trying gmin =   1.8337E-07 Note: One successful gmin step
Trying gmin =   1.8337E-08 Note: One successful gmin step
Trying gmin =   1.8337E-09 Note: One successful gmin step
Trying gmin =   1.8337E-10 Note: One successful gmin step
Trying gmin =   1.8337E-11 Note: One successful gmin step
Trying gmin =   1.8337E-12 Note: One successful gmin step
Trying gmin =   1.0000E-12 Note: One successful gmin step
Note: Dynamic gmin stepping completed

No compatibility mode selected!


Circuit: * div tb

Doing analysis at TEMP = -40.000000 and TNOM = -40.000000


Initial Transient Solution
--------------------------

Node                                   Voltage
----                                   -------
vdd                                        1.8
p2                                         1.8
p4                                           0
p1                                           0
p3                                           0
p5                                         1.8
p6                                           0
p0                                           0
p7                                           0
x1.x1.x2.net1                              1.8
x1.net1                            3.14633e-09
x1.net2                            2.76477e-10
x1.x1.x2.x1.net1                    0.00512641
x1.x1.net3                         6.35453e-10
x1.x1.net1                                 1.8
x1.x1.net2                                 1.8
x1.x1.x3.net1                      1.57316e-09
fin                                        0.9
x1.x1.x4.net1                         0.609262
x1.x1.x4.net2                      4.09138e-14
opennet                                    1.8
x1.x1.fib                            0.0271092
x1.x1.x1.net2                          1.79055
x1.x1.x1.net4                      9.84542e-09
x1.x1.x1.net1                      4.34286e-10
x1.x1.x1.net5                        0.0680589
x1.x1.x1.net3                       0.00162774
x1.x1.x6.net2                          1.79055
x1.x1.x6.net4                      7.33455e-09
x1.x1.x6.net1                      4.34286e-10
x1.x1.x6.net5                        0.0680589
x1.x1.x6.net3                       0.00162774
x1.x2.x2.net1                      1.80545e-09
x1.net3                                    1.8
x1.net4                                    1.8
x1.x2.x2.x1.net1                   9.02724e-10
x1.x2.net3                                 1.8
x1.x2.net1                         2.76477e-10
x1.x2.net2                                 1.8
x1.x2.x3.net1                      1.57383e-12
x1.x2.x4.net1                       0.00105613
x1.x2.x4.net2                       2.6327e-06
x1.x2.fib                                  1.8
x1.x2.x1.net2                              1.8
x1.x2.x1.net4                      2.06674e-09
x1.x2.x1.net1                      7.57531e-10
x1.x2.x1.net5                              1.8
x1.x2.x1.net3                              1.8
x1.x2.x6.net2                              1.8
x1.x2.x6.net4                      2.06674e-09
x1.x2.x6.net1                      7.57531e-10
x1.x2.x6.net5                              1.8
x1.x2.x6.net3                              1.8
x1.x3.x2.net1                      1.80545e-09
x1.net5                                    1.8
x1.net6                                    1.8
x1.x3.x2.x1.net1                   9.02724e-10
x1.x3.net3                                 1.8
x1.x3.net1                                 1.8
x1.x3.net2                         2.51792e-09
x1.x3.x3.net1                          1.36845
x1.x3.x4.net1                      1.67861e-09
x1.x3.x4.net2                      8.39306e-10
x1.x3.fib                          2.76477e-10
x1.x3.x1.net2                      4.69609e-10
x1.x3.x1.net4                              1.8
x1.x3.x1.net1                              1.8
x1.x3.x1.net5                      1.84204e-09
x1.x3.x1.net3                      7.08921e-10
x1.x3.x6.net2                      4.69609e-10
x1.x3.x6.net4                              1.8
x1.x3.x6.net1                              1.8
x1.x3.x6.net5                      1.84204e-09
x1.x3.x6.net3                      7.08921e-10
x1.x4.x2.net1                              1.8
x1.net7                            3.42075e-09
x1.net8                            2.76477e-10
x1.x4.x2.x1.net1                    0.00512648
x1.x4.net3                         7.08921e-10
x1.x4.net1                                 1.8
x1.x4.net2                                 1.8
x1.x4.x3.net1                      1.71038e-09
x1.x4.x4.net1                          1.37614
x1.x4.x4.net2                      1.11687e-13
x1.x4.fib                          2.76477e-10
x1.x4.x1.net2                              1.8
x1.x4.x1.net4                      4.55387e-09
x1.x4.x1.net1                      4.69609e-10
x1.x4.x1.net5                      2.06674e-09
x1.x4.x1.net3                      7.57531e-10
x1.x4.x6.net2                              1.8
x1.x4.x6.net4                      1.84204e-09
x1.x4.x6.net1                      4.69609e-10
x1.x4.x6.net5                      2.06674e-09
x1.x4.x6.net3                      7.57531e-10
x1.x5.x2.net1                      1.80545e-09
x1.net9                                    1.8
x1.net10                                   1.8
x1.x5.x2.x1.net1                   9.02724e-10
x1.x5.net3                                 1.8
x1.x5.net1                         2.76477e-10
x1.x5.net2                                 1.8
x1.x5.x3.net1                      1.57388e-12
x1.x5.x4.net1                       0.00105613
x1.x5.x4.net2                       2.6327e-06
x1.x5.fib                                  1.8
x1.x5.x1.net2                              1.8
x1.x5.x1.net4                      2.06674e-09
x1.x5.x1.net1                      7.57531e-10
x1.x5.x1.net5                              1.8
x1.x5.x1.net3                              1.8
x1.x5.x6.net2                              1.8
x1.x5.x6.net4                      2.06674e-09
x1.x5.x6.net1                      7.57531e-10
x1.x5.x6.net5                              1.8
x1.x5.x6.net3                              1.8
x1.x6.x2.net1                      1.80545e-09
x1.net11                                   1.8
x1.net12                                   1.8
x1.x6.x2.x1.net1                   9.02724e-10
x1.x6.net3                                 1.8
x1.x6.net1                                 1.8
x1.x6.net2                         2.51792e-09
x1.x6.x3.net1                          1.36846
x1.x6.x4.net1                      1.67861e-09
x1.x6.x4.net2                      8.39306e-10
x1.x6.fib                          2.76477e-10
x1.x6.x1.net2                      4.69609e-10
x1.x6.x1.net4                              1.8
x1.x6.x1.net1                              1.8
x1.x6.x1.net5                      1.84204e-09
x1.x6.x1.net3                      7.08921e-10
x1.x6.x6.net2                      4.69609e-10
x1.x6.x6.net4                              1.8
x1.x6.x6.net1                              1.8
x1.x6.x6.net5                      1.84204e-09
x1.x6.x6.net3                      7.08921e-10
x1.x7.x2.net1                              1.8
x1.net13                           3.42075e-09
x1.net14                           2.76477e-10
x1.x7.x2.x1.net1                    0.00512648
x1.x7.net3                         7.08921e-10
x1.x7.net1                                 1.8
x1.x7.net2                                 1.8
x1.x7.x3.net1                      1.71038e-09
x1.x7.x4.net1                          1.37617
x1.x7.x4.net2                      1.11689e-13
x1.x7.fib                          2.76477e-10
x1.x7.x1.net2                              1.8
x1.x7.x1.net4                      4.55387e-09
x1.x7.x1.net1                      4.69609e-10
x1.x7.x1.net5                      2.06674e-09
x1.x7.x1.net3                      7.57531e-10
x1.x7.x6.net2                              1.8
x1.x7.x6.net4                      1.84204e-09
x1.x7.x6.net1                      4.69609e-10
x1.x7.x6.net5                      2.06674e-09
x1.x7.x6.net3                      7.57531e-10
x1.x8.x2.net1                      1.80545e-09
fout                                       1.8
x1.x8.x2.x1.net1                   9.02724e-10
x1.x8.net3                                 1.8
x1.x8.net1                         2.76477e-10
x1.x8.net2                                 1.8
x1.x8.x3.net1                      1.57383e-12
x1.x8.x4.net1                       0.00105613
x1.x8.x4.net2                       2.6327e-06
x1.x8.fib                                  1.8
x1.x8.x1.net2                              1.8
x1.x8.x1.net4                      2.06674e-09
x1.x8.x1.net1                      7.57531e-10
x1.x8.x1.net5                              1.8
x1.x8.x1.net3                              1.8
x1.x8.x6.net2                              1.8
x1.x8.x6.net4                      2.06674e-09
x1.x8.x6.net1                      7.57531e-10
x1.x8.x6.net5                              1.8
x1.x8.x6.net3                              1.8
v1#branch                                    0
vdd8#branch                                  0
vdd7#branch                                  0
vdd6#branch                                  0
vdd5#branch                                  0
vdd4#branch                                  0
vdd3#branch                                  0
vdd2#branch                                  0
vdd1#branch                                  0
vdd#branch                        -0.000107921

 Reference value :  0.00000e+00 Reference value :  5.32800e-10 Reference value :  1.04043e-09 Reference value :  1.52721e-09 Reference value :  1.99272e-09 Reference value :  2.49058e-09 Reference value :  2.99733e-09 Reference value :  3.46351e-09 Reference value :  3.91868e-09 Reference value :  4.42681e-09 Reference value :  4.93217e-09 Reference value :  5.39686e-09 Reference value :  5.91374e-09 Reference value :  6.46374e-09 Reference value :  6.94756e-09 Reference value :  7.41259e-09 Reference value :  7.95171e-09 Reference value :  8.47800e-09 Reference value :  8.99583e-09 Reference value :  9.48173e-09 Reference value :  1.00311e-08 Reference value :  1.05032e-08 Reference value :  1.09800e-08 Reference value :  1.14977e-08 Reference value :  1.20035e-08 Reference value :  1.25115e-08 Reference value :  1.30169e-08 Reference value :  1.35669e-08 Reference value :  1.40621e-08 Reference value :  1.45375e-08 Reference value :  1.50455e-08 Reference value :  1.55852e-08 Reference value :  1.60619e-08 Reference value :  1.65049e-08 Reference value :  1.69910e-08 Reference value :  1.75394e-08 Reference value :  1.80256e-08 Reference value :  1.85211e-08 Reference value :  1.90711e-08 Reference value :  1.95648e-08 Reference value :  2.00512e-08 Reference value :  2.05690e-08 Reference value :  2.10853e-08 Reference value :  2.15931e-08 Reference value :  2.20890e-08 Reference value :  2.26390e-08 Reference value :  2.31117e-08 Reference value :  2.35779e-08 Reference value :  2.40645e-08 Reference value :  2.46045e-08 Reference value :  2.51124e-08 Reference value :  2.56077e-08 Reference value :  2.61477e-08 Reference value :  2.66413e-08 Reference value :  2.70970e-08 Reference value :  2.75825e-08 Reference value :  2.81225e-08 Reference value :  2.86300e-08 Reference value :  2.91170e-08 Reference value :  2.95811e-08 Reference value :  3.01207e-08 Reference value :  3.06047e-08 Reference value :  3.10682e-08 Reference value :  3.16182e-08 Reference value :  3.21248e-08 Reference value :  3.25790e-08 Reference value :  3.30763e-08 Reference value :  3.36263e-08 Reference value :  3.41325e-08 Reference value :  3.46281e-08 Reference value :  3.51363e-08 Reference value :  3.56419e-08 Reference value :  3.61271e-08 Reference value :  3.66127e-08 Reference value :  3.71627e-08 Reference value :  3.76589e-08 Reference value :  3.81435e-08 Reference value :  3.86713e-08 Reference value :  3.92113e-08 Reference value :  3.96951e-08 Reference value :  4.01591e-08 Reference value :  4.06891e-08 Reference value :  4.12053e-08 Reference value :  4.17131e-08 Reference value :  4.21990e-08 Reference value :  4.27388e-08 Reference value :  4.32324e-08 Reference value :  4.36857e-08 Reference value :  4.41851e-08 Reference value :  4.47015e-08 Reference value :  4.51985e-08 Reference value :  4.56940e-08 Reference value :  4.62440e-08 Reference value :  4.67277e-08 Reference value :  4.72244e-08 Reference value :  4.77423e-08 Reference value :  4.82923e-08 Reference value :  4.87970e-08 Reference value :  4.93029e-08 Reference value :  4.98429e-08 Reference value :  5.03265e-08 Reference value :  5.08344e-08 Reference value :  5.13211e-08 Reference value :  5.18390e-08 Reference value :  5.23339e-08 Reference value :  5.28287e-08 Reference value :  5.33066e-08 Reference value :  5.38130e-08 Reference value :  5.42789e-08 Reference value :  5.47562e-08 Reference value :  5.52762e-08 Reference value :  5.57413e-08 Reference value :  5.62593e-08 Reference value :  5.67465e-08 Reference value :  5.72957e-08 Reference value :  5.77825e-08 Reference value :  5.82915e-08 Reference value :  5.87896e-08 Reference value :  5.93081e-08 Reference value :  5.97859e-08 Reference value :  6.02935e-08 Reference value :  6.08335e-08 Reference value :  6.13065e-08 Reference value :  6.18038e-08 Reference value :  6.23431e-08 Reference value :  6.28611e-08 Reference value :  6.33999e-08 Reference value :  6.39054e-08 Reference value :  6.44654e-08 Reference value :  6.49495e-08 Reference value :  6.54370e-08 Reference value :  6.59452e-08 Reference value :  6.64845e-08 Reference value :  6.69687e-08 Reference value :  6.74421e-08 Reference value :  6.80021e-08 Reference value :  6.84972e-08 Reference value :  6.90155e-08 Reference value :  6.95443e-08 Reference value :  7.00719e-08 Reference value :  7.05881e-08 Reference value :  7.11271e-08 Reference value :  7.16771e-08 Reference value :  7.21946e-08 Reference value :  7.26800e-08 Reference value :  7.31444e-08 Reference value :  7.37044e-08 Reference value :  7.42341e-08 Reference value :  7.47417e-08 Reference value :  7.52817e-08 Reference value :  7.57787e-08 Reference value :  7.62974e-08 Reference value :  7.68169e-08 Reference value :  7.73445e-08 Reference value :  7.78606e-08 Reference value :  7.83896e-08 Reference value :  7.89296e-08 Reference value :  7.94571e-08 Reference value :  7.99436e-08 Reference value :  8.04299e-08 Reference value :  8.09699e-08 Reference value :  8.14774e-08 Reference value :  8.20059e-08 Reference value :  8.25559e-08 Reference value :  8.30530e-08 Reference value :  8.35720e-08 Reference value :  8.41017e-08 Reference value :  8.46298e-08 Reference value :  8.51593e-08 Reference value :  8.56988e-08 Reference value :  8.62388e-08 Reference value :  8.67331e-08 Reference value :  8.72286e-08 Reference value :  8.77039e-08 Reference value :  8.82339e-08 Reference value :  8.87414e-08 Reference value :  8.92390e-08 Reference value :  8.97890e-08 Reference value :  9.03168e-08 Reference value :  9.08250e-08 Reference value :  9.13445e-08 Reference value :  9.18627e-08 Reference value :  9.23923e-08 Reference value :  9.29218e-08 Reference value :  9.34818e-08 Reference value :  9.39771e-08 Reference value :  9.44744e-08 Reference value :  9.49844e-08 Reference value :  9.55244e-08 Reference value :  9.60087e-08 Reference value :  9.65040e-08 Reference value :  9.70432e-08 Reference value :  9.75607e-08 Reference value :  9.80475e-08 Reference value :  9.85669e-08 Reference value :  9.90949e-08 Reference value :  9.96342e-08 Reference value :  1.00154e-07 Reference value :  1.00704e-07 Reference value :  1.01188e-07 Reference value :  1.01684e-07 Reference value :  1.02128e-07 Reference value :  1.02658e-07 Reference value :  1.03165e-07 Reference value :  1.03673e-07 Reference value :  1.04213e-07 Reference value :  1.04742e-07 Reference value :  1.05239e-07 Reference value :  1.05769e-07 Reference value :  1.06276e-07 Reference value :  1.06783e-07 Reference value :  1.07322e-07 Reference value :  1.07852e-07 Reference value :  1.08358e-07 Reference value :  1.08855e-07 Reference value :  1.09330e-07 Reference value :  1.09870e-07 Reference value :  1.10377e-07 Reference value :  1.10885e-07 Reference value :  1.11425e-07 Reference value :  1.11954e-07 Reference value :  1.12451e-07 Reference value :  1.12981e-07 Reference value :  1.13499e-07 Reference value :  1.13995e-07 Reference value :  1.14534e-07 Reference value :  1.15064e-07 Reference value :  1.15592e-07 Reference value :  1.16088e-07 Reference value :  1.16554e-07 Reference value :  1.17063e-07 Reference value :  1.17581e-07 Reference value :  1.18108e-07 Reference value :  1.18638e-07 Reference value :  1.19188e-07 Reference value :  1.19685e-07 Reference value :  1.20153e-07 Reference value :  1.20671e-07 Reference value :  1.21196e-07 Reference value :  1.21714e-07 Reference value :  1.22233e-07 Reference value :  1.22783e-07 Reference value :  1.23292e-07 Reference value :  1.23757e-07 Reference value :  1.24286e-07 Reference value :  1.24813e-07 Reference value :  1.25300e-07 Reference value :  1.25820e-07 Reference value :  1.26359e-07 Reference value :  1.26869e-07 Reference value :  1.27377e-07 Reference value :  1.27874e-07 Reference value :  1.28402e-07 Reference value :  1.28890e-07 Reference value :  1.29333e-07 Reference value :  1.29841e-07 Reference value :  1.30358e-07 Reference value :  1.30866e-07 Reference value :  1.31406e-07 Reference value :  1.31946e-07 Reference value :  1.32432e-07 Reference value :  1.32951e-07 Reference value :  1.33458e-07 Reference value :  1.33975e-07 Reference value :  1.34505e-07 Reference value :  1.35035e-07 Reference value :  1.35575e-07 Reference value :  1.36070e-07 Reference value :  1.36578e-07 Reference value :  1.37086e-07 Reference value :  1.37593e-07 Reference value :  1.38123e-07 Reference value :  1.38630e-07 Reference value :  1.39170e-07 Reference value :  1.39656e-07 Reference value :  1.40154e-07 Reference value :  1.40662e-07 Reference value :  1.41158e-07 Reference value :  1.41707e-07 Reference value :  1.42237e-07 Reference value :  1.42787e-07 Reference value :  1.43273e-07 Reference value :  1.43726e-07 Reference value :  1.44235e-07 Reference value :  1.44753e-07 Reference value :  1.45260e-07 Reference value :  1.45790e-07 Reference value :  1.46319e-07 Reference value :  1.46837e-07 Reference value :  1.47336e-07 Reference value :  1.47843e-07 Reference value :  1.48371e-07 Reference value :  1.48921e-07 Reference value :  1.49451e-07 Reference value :  1.50001e-07 Reference value :  1.50528e-07 Reference value :  1.51026e-07 Reference value :  1.51556e-07 Reference value :  1.52106e-07 Reference value :  1.52623e-07 Reference value :  1.53141e-07 Reference value :  1.53691e-07 Reference value :  1.54220e-07 Reference value :  1.54707e-07 Reference value :  1.55226e-07 Reference value :  1.55743e-07 Reference value :  1.56283e-07 Reference value :  1.56803e-07 Reference value :  1.57353e-07 Reference value :  1.57837e-07 Reference value :  1.58326e-07 Reference value :  1.58833e-07 Reference value :  1.59350e-07 Reference value :  1.59890e-07 Reference value :  1.60370e-07 Reference value :  1.60920e-07 Reference value :  1.61438e-07 Reference value :  1.61946e-07 Reference value :  1.62476e-07 Reference value :  1.62995e-07 Reference value :  1.63523e-07 Reference value :  1.64033e-07 Reference value :  1.64593e-07 Reference value :  1.65070e-07 Reference value :  1.65546e-07 Reference value :  1.66055e-07 Reference value :  1.66552e-07 Reference value :  1.67052e-07 Reference value :  1.67582e-07 Reference value :  1.68112e-07 Reference value :  1.68597e-07 Reference value :  1.69105e-07 Reference value :  1.69613e-07 Reference value :  1.70131e-07 Reference value :  1.70659e-07 Reference value :  1.71199e-07 Reference value :  1.71739e-07 Reference value :  1.72224e-07 Reference value :  1.72688e-07 Reference value :  1.73186e-07 Reference value :  1.73736e-07 Reference value :  1.74233e-07 Reference value :  1.74741e-07 Reference value :  1.75281e-07 Reference value :  1.75788e-07 Reference value :  1.76306e-07 Reference value :  1.76794e-07 Reference value :  1.77334e-07 Reference value :  1.77831e-07 Reference value :  1.78351e-07 Reference value :  1.78901e-07 Reference value :  1.79407e-07 Reference value :  1.79914e-07 Reference value :  1.80381e-07 Reference value :  1.80931e-07 Reference value :  1.81439e-07 Reference value :  1.81969e-07 Reference value :  1.82489e-07 Reference value :  1.83016e-07 Reference value :  1.83535e-07 Reference value :  1.84045e-07 Reference value :  1.84595e-07 Reference value :  1.85103e-07 Reference value :  1.85611e-07 Reference value :  1.86161e-07 Reference value :  1.86679e-07 Reference value :  1.87196e-07 Reference value :  1.87674e-07 Reference value :  1.88202e-07 Reference value :  1.88722e-07 Reference value :  1.89241e-07 Reference value :  1.89771e-07 Reference value :  1.90310e-07 Reference value :  1.90817e-07 Reference value :  1.91337e-07 Reference value :  1.91877e-07 Reference value :  1.92406e-07 Reference value :  1.92936e-07 Reference value :  1.93486e-07 Reference value :  1.93971e-07 Reference value :  1.94479e-07 Reference value :  1.94967e-07 Reference value :  1.95517e-07 Reference value :  1.96025e-07 Reference value :  1.96545e-07 Reference value :  1.97075e-07 Reference value :  1.97592e-07 Reference value :  1.98121e-07 Reference value :  1.98651e-07 Reference value :  1.99201e-07 Reference value :  1.99707e-07 Reference value :  2.00237e-07 Reference value :  2.00787e-07 Reference value :  2.01294e-07 Reference value :  2.01791e-07 Reference value :  2.02269e-07 Reference value :  2.02808e-07 Reference value :  2.03337e-07 Reference value :  2.03857e-07 Reference value :  2.04397e-07 Reference value :  2.04924e-07 Reference value :  2.05452e-07 Reference value :  2.05982e-07 Reference value :  2.06521e-07 Reference value :  2.07039e-07 Reference value :  2.07588e-07 Reference value :  2.08128e-07 Reference value :  2.08636e-07 Reference value :  2.09090e-07 Reference value :  2.09610e-07 Reference value :  2.10138e-07 Reference value :  2.10645e-07 Reference value :  2.11175e-07 Reference value :  2.11705e-07 Reference value :  2.12202e-07 Reference value :  2.12721e-07 Reference value :  2.13239e-07 Reference value :  2.13757e-07 Reference value :  2.14275e-07 Reference value :  2.14805e-07 Reference value :  2.15345e-07 Reference value :  2.15830e-07 Reference value :  2.16305e-07 Reference value :  2.16763e-07 Reference value :  2.17313e-07 Reference value :  2.17800e-07 Reference value :  2.18308e-07 Reference value :  2.18838e-07 Reference value :  2.19377e-07 Reference value :  2.19853e-07 Reference value :  2.20341e-07 Reference value :  2.20870e-07 Reference value :  2.21387e-07 Reference value :  2.21916e-07 Reference value :  2.22446e-07 Reference value :  2.22995e-07 Reference value :  2.23451e-07 Reference value :  2.23906e-07 Reference value :  2.24456e-07 Reference value :  2.24964e-07 Reference value :  2.25451e-07 Reference value :  2.25981e-07 Reference value :  2.26500e-07 Reference value :  2.26987e-07 Reference value :  2.27517e-07 Reference value :  2.28004e-07 Reference value :  2.28523e-07 Reference value :  2.29010e-07 Reference value :  2.29431e-07 Reference value :  2.29971e-07 Reference value :  2.30478e-07 Reference value :  2.30996e-07 Reference value :  2.31526e-07 Reference value :  2.32075e-07 Reference value :  2.32540e-07 Reference value :  2.33030e-07 Reference value :  2.33538e-07 Reference value :  2.34066e-07 Reference value :  2.34616e-07 Reference value :  2.35136e-07 Reference value :  2.35653e-07 Reference value :  2.36149e-07 Reference value :  2.36667e-07 Reference value :  2.37207e-07 Reference value :  2.37737e-07 Reference value :  2.38244e-07 Reference value :  2.38774e-07 Reference value :  2.39272e-07 Reference value :  2.39792e-07 Reference value :  2.40331e-07 Reference value :  2.40861e-07 Reference value :  2.41388e-07 Reference value :  2.41928e-07 Reference value :  2.42457e-07 Reference value :  2.42975e-07 Reference value :  2.43450e-07 Reference value :  2.43938e-07 Reference value :  2.44455e-07 Reference value :  2.44963e-07 Reference value :  2.45438e-07 Reference value :  2.45978e-07 Reference value :  2.46507e-07 Reference value :  2.47036e-07 Reference value :  2.47511e-07 Reference value :  2.48051e-07 Reference value :  2.48559e-07 Reference value :  2.49077e-07 Reference value :  2.49617e-07 Reference value :  2.50157e-07 Reference value :  2.50663e-07 Reference value :  2.51193e-07 Reference value :  2.51700e-07 Reference value :  2.52197e-07 Reference value :  2.52736e-07 Reference value :  2.53266e-07 Reference value :  2.53783e-07 Reference value :  2.54269e-07 Reference value :  2.54764e-07 Reference value :  2.55304e-07 Reference value :  2.55822e-07 Reference value :  2.56350e-07 Reference value :  2.56880e-07 Reference value :  2.57420e-07 Reference value :  2.57926e-07 Reference value :  2.58446e-07 Reference value :  2.58954e-07 Reference value :  2.59440e-07 Reference value :  2.59969e-07 Reference value :  2.60509e-07 Reference value :  2.61047e-07 Reference value :  2.61542e-07 Reference value :  2.62038e-07 Reference value :  2.62588e-07 Reference value :  2.63106e-07 Reference value :  2.63655e-07 Reference value :  2.64195e-07 Reference value :  2.64713e-07 Reference value :  2.65198e-07 Reference value :  2.65718e-07 Reference value :  2.66236e-07 Reference value :  2.66722e-07 Reference value :  2.67221e-07 Reference value :  2.67751e-07 Reference value :  2.68301e-07 Reference value :  2.68756e-07 Reference value :  2.69231e-07 Reference value :  2.69730e-07 Reference value :  2.70248e-07 Reference value :  2.70766e-07 Reference value :  2.71286e-07 Reference value :  2.71846e-07 Reference value :  2.72323e-07 Reference value :  2.72788e-07 Reference value :  2.73236e-07 Reference value :  2.73775e-07 Reference value :  2.74252e-07 Reference value :  2.74748e-07 Reference value :  2.75278e-07 Reference value :  2.75796e-07 Reference value :  2.76294e-07 Reference value :  2.76782e-07 Reference value :  2.77342e-07 Reference value :  2.77881e-07 Reference value :  2.78429e-07 Reference value :  2.78989e-07 Reference value :  2.79487e-07 Reference value :  2.79984e-07 Reference value :  2.80501e-07 Reference value :  2.81030e-07 Reference value :  2.81537e-07 Reference value :  2.82087e-07 Reference value :  2.82647e-07 Reference value :  2.83132e-07 Reference value :  2.83618e-07 Reference value :  2.84135e-07 Reference value :  2.84674e-07 Reference value :  2.85191e-07 Reference value :  2.85731e-07 Reference value :  2.86251e-07 Reference value :  2.86758e-07 Reference value :  2.87277e-07 Reference value :  2.87764e-07 Reference value :  2.88283e-07 Reference value :  2.88790e-07 Reference value :  2.89320e-07 Reference value :  2.89880e-07 Reference value :  2.90365e-07 Reference value :  2.90851e-07 Reference value :  2.91358e-07 Reference value :  2.91908e-07 Reference value :  2.92426e-07 Reference value :  2.92944e-07 Reference value :  2.93494e-07 Reference value :  2.94011e-07 Reference value :  2.94519e-07 Reference value :  2.95027e-07 Reference value :  2.95545e-07 Reference value :  2.96053e-07 Reference value :  2.96592e-07 Reference value :  2.97142e-07 Reference value :  2.97627e-07 Reference value :  2.98124e-07 Reference value :  2.98631e-07 Reference value :  2.99181e-07 Reference value :  2.99699e-07 Reference value :  3.00217e-07 Reference value :  3.00777e-07 Reference value :  3.01284e-07 Reference value :  3.01782e-07 Reference value :  3.02259e-07 Reference value :  3.02798e-07 Reference value :  3.03316e-07 Reference value :  3.03845e-07 Reference value :  3.04395e-07 Reference value :  3.04881e-07 Reference value :  3.05388e-07 Reference value :  3.05864e-07 Reference value :  3.06414e-07 Reference value :  3.06931e-07 Reference value :  3.07439e-07 Reference value :  3.07979e-07 Reference value :  3.08498e-07 Reference value :  3.09004e-07 Reference value :  3.09492e-07 Reference value :  3.10021e-07 Reference value :  3.10528e-07 Reference value :  3.11057e-07 Reference value :  3.11607e-07 Reference value :  3.12134e-07 Reference value :  3.12652e-07 Reference value :  3.13139e-07 Reference value :  3.13679e-07 Reference value :  3.14196e-07 Reference value :  3.14714e-07 Reference value :  3.15264e-07 Reference value :  3.15762e-07 Reference value :  3.16247e-07 Reference value :  3.16693e-07 Reference value :  3.17233e-07 Reference value :  3.17751e-07 Reference value :  3.18290e-07 Reference value :  3.18820e-07 Reference value :  3.19338e-07 Reference value :  3.19803e-07 Reference value :  3.20309e-07 Reference value :  3.20859e-07 Reference value :  3.21377e-07 Reference value :  3.21895e-07 Reference value :  3.22425e-07 Reference value :  3.22974e-07 Reference value :  3.23440e-07 Reference value :  3.23907e-07 Reference value :  3.24437e-07 Reference value :  3.24944e-07 Reference value :  3.25407e-07 Reference value :  3.25936e-07 Reference value :  3.26476e-07 Reference value :  3.26941e-07 Reference value :  3.27471e-07 Reference value :  3.27969e-07 Reference value :  3.28488e-07 Reference value :  3.28994e-07 Reference value :  3.29461e-07 Reference value :  3.30011e-07 Reference value :  3.30519e-07 Reference value :  3.31058e-07 Reference value :  3.31608e-07 Reference value :  3.32134e-07 Reference value :  3.32630e-07 Reference value :  3.33127e-07 Reference value :  3.33687e-07 Reference value :  3.34194e-07 Reference value :  3.34724e-07 Reference value :  3.35274e-07 Reference value :  3.35780e-07 Reference value :  3.36288e-07 Reference value :  3.36786e-07 Reference value :  3.37294e-07 Reference value :  3.37802e-07 Reference value :  3.38321e-07 Reference value :  3.38861e-07 Reference value :  3.39379e-07 Reference value :  3.39855e-07 Reference value :  3.40352e-07 Reference value :  3.40882e-07 Reference value :  3.41400e-07 Reference value :  3.41929e-07 Reference value :  3.42447e-07 Reference value :  3.42975e-07 Reference value :  3.43450e-07 Reference value :  3.43948e-07 Reference value :  3.44486e-07 Reference value :  3.45004e-07 Reference value :  3.45543e-07 Reference value :  3.46073e-07 Reference value :  3.46601e-07 Reference value :  3.47075e-07 Reference value :  3.47592e-07 Reference value :  3.48132e-07 Reference value :  3.48660e-07 Reference value :  3.49199e-07 Reference value :  3.49739e-07 Reference value :  3.50288e-07 Reference value :  3.50774e-07 Reference value :  3.51261e-07 Reference value :  3.51769e-07 Reference value :  3.52287e-07 Reference value :  3.52826e-07 Reference value :  3.53356e-07 Reference value :  3.53883e-07 Reference value :  3.54359e-07 Reference value :  3.54855e-07 Reference value :  3.55395e-07 Reference value :  3.55902e-07 Reference value :  3.56430e-07 Reference value :  3.56960e-07 Reference value :  3.57500e-07 Reference value :  3.57975e-07 Reference value :  3.58495e-07 Reference value :  3.59025e-07 Reference value :  3.59520e-07 Reference value :  3.60060e-07 Reference value :  3.60580e-07 Reference value :  3.61098e-07 Reference value :  3.61606e-07 Reference value :  3.62146e-07 Reference value :  3.62696e-07 Reference value :  3.63235e-07 Reference value :  3.63764e-07 Reference value :  3.64304e-07 Reference value :  3.64854e-07 Reference value :  3.65340e-07 Reference value :  3.65827e-07 Reference value :  3.66367e-07 Reference value :  3.66895e-07 Reference value :  3.67403e-07 Reference value :  3.67923e-07 Reference value :  3.68451e-07 Reference value :  3.68959e-07 Reference value :  3.69479e-07 Reference value :  3.70029e-07 Reference value :  3.70558e-07 Reference value :  3.71077e-07 Reference value :  3.71627e-07 Reference value :  3.72144e-07 Reference value :  3.72652e-07 Reference value :  3.73097e-07 Reference value :  3.73637e-07 Reference value :  3.74145e-07 Reference value :  3.74644e-07 Reference value :  3.75174e-07 Reference value :  3.75701e-07 Reference value :  3.76127e-07 Reference value :  3.76612e-07 Reference value :  3.77142e-07 Reference value :  3.77650e-07 Reference value :  3.78168e-07 Reference value :  3.78698e-07 Reference value :  3.79228e-07 Reference value :  3.79714e-07 Reference value :  3.80223e-07 Reference value :  3.80722e-07 Reference value :  3.81188e-07 Reference value :  3.81668e-07 Reference value :  3.82178e-07 Reference value :  3.82728e-07 Reference value :  3.83204e-07 Reference value :  3.83689e-07 Reference value :  3.84219e-07 Reference value :  3.84738e-07 Reference value :  3.85278e-07 Reference value :  3.85785e-07 Reference value :  3.86335e-07 Reference value :  3.86830e-07 Reference value :  3.87318e-07 Reference value :  3.87815e-07 Reference value :  3.88322e-07 Reference value :  3.88851e-07 Reference value :  3.89391e-07 Reference value :  3.89941e-07 Reference value :  3.90479e-07 Reference value :  3.90999e-07 Reference value :  3.91519e-07 Reference value :  3.92048e-07 Reference value :  3.92588e-07 Reference value :  3.93108e-07 Reference value :  3.93657e-07 Reference value :  3.94142e-07 Reference value :  3.94628e-07 Reference value :  3.95158e-07 Reference value :  3.95687e-07 Reference value :  3.96216e-07 Reference value :  3.96724e-07 Reference value :  3.97264e-07 Reference value :  3.97771e-07 Reference value :  3.98310e-07 Reference value :  3.98840e-07 Reference value :  3.99368e-07 Reference value :  3.99896e-07 Reference value :  4.00416e-07 Reference value :  4.00956e-07 Reference value :  4.01462e-07 Reference value :  4.01951e-07 Reference value :  4.02470e-07 Reference value :  4.02987e-07 Reference value :  4.03527e-07 Reference value :  4.04037e-07 Reference value :  4.04586e-07 Reference value :  4.05106e-07 Reference value :  4.05615e-07 Reference value :  4.06145e-07 Reference value :  4.06674e-07 Reference value :  4.07214e-07 Reference value :  4.07744e-07 Reference value :  4.08273e-07 Reference value :  4.08749e-07 Reference value :  4.09224e-07 Reference value :  4.09754e-07 Reference value :  4.10304e-07 Reference value :  4.10822e-07 Reference value :  4.11310e-07 Reference value :  4.11860e-07 Reference value :  4.12366e-07 Reference value :  4.12886e-07 Reference value :  4.13416e-07 Reference value :  4.13944e-07 Reference value :  4.14472e-07 Reference value :  4.15002e-07 Reference value :  4.15541e-07 Reference value :  4.16048e-07 Reference value :  4.16506e-07 Reference value :  4.16993e-07 Reference value :  4.17533e-07 Reference value :  4.18073e-07 Reference value :  4.18593e-07 Reference value :  4.19142e-07 Reference value :  4.19671e-07 Reference value :  4.20171e-07 Reference value :  4.20701e-07 Reference value :  4.21229e-07 Reference value :  4.21769e-07 Reference value :  4.22289e-07 Reference value :  4.22838e-07 Reference value :  4.23323e-07 Reference value :  4.23766e-07 Reference value :  4.24296e-07 Reference value :  4.24834e-07 Reference value :  4.25350e-07 Reference value :  4.25970e-07 Reference value :  4.26498e-07 Reference value :  4.26986e-07 Reference value :  4.27516e-07 Reference value :  4.28014e-07 Reference value :  4.28533e-07 Reference value :  4.29030e-07 Reference value :  4.29463e-07 Reference value :  4.29953e-07 Reference value :  4.30470e-07 Reference value :  4.31010e-07 Reference value :  4.31530e-07 Reference value :  4.32048e-07 Reference value :  4.32576e-07 Reference value :  4.33106e-07 Reference value :  4.33666e-07 Reference value :  4.34184e-07 Reference value :  4.34692e-07 Reference value :  4.35242e-07 Reference value :  4.35770e-07 Reference value :  4.36287e-07 Reference value :  4.36797e-07 Reference value :  4.37325e-07 Reference value :  4.37845e-07 Reference value :  4.38365e-07 Reference value :  4.38915e-07 Reference value :  4.39433e-07 Reference value :  4.39953e-07 Reference value :  4.40483e-07 Reference value :  4.41010e-07 Reference value :  4.41530e-07 Reference value :  4.42070e-07 Reference value :  4.42610e-07 Reference value :  4.43108e-07 Reference value :  4.43592e-07 Reference value :  4.44066e-07 Reference value :  4.44616e-07 Reference value :  4.45123e-07 Reference value :  4.45631e-07 Reference value :  4.46181e-07 Reference value :  4.46720e-07 Reference value :  4.47217e-07 Reference value :  4.47757e-07 Reference value :  4.48275e-07 Reference value :  4.48805e-07 Reference value :  4.49345e-07 Reference value :  4.49905e-07 Reference value :  4.50402e-07 Reference value :  4.50899e-07 Reference value :  4.51429e-07 Reference value :  4.51958e-07 Reference value :  4.52488e-07 Reference value :  4.53038e-07 Reference value :  4.53578e-07 Reference value :  4.54094e-07 Reference value :  4.54624e-07 Reference value :  4.55154e-07 Reference value :  4.55672e-07 Reference value :  4.56212e-07 Reference value :  4.56752e-07 Reference value :  4.57312e-07 Reference value :  4.57809e-07 Reference value :  4.58284e-07 Reference value :  4.58804e-07 Reference value :  4.59334e-07 Reference value :  4.59863e-07 Reference value :  4.60361e-07 Reference value :  4.60901e-07 Reference value :  4.61418e-07 Reference value :  4.61926e-07 Reference value :  4.62456e-07 Reference value :  4.63005e-07 Reference value :  4.63544e-07 Reference value :  4.64084e-07 Reference value :  4.64624e-07 Reference value :  4.65143e-07 Reference value :  4.65652e-07 Reference value :  4.66192e-07 Reference value :  4.66732e-07 Reference value :  4.67239e-07 Reference value :  4.67779e-07 Reference value :  4.68318e-07 Reference value :  4.68806e-07 Reference value :  4.69346e-07 Reference value :  4.69876e-07 Reference value :  4.70394e-07 Reference value :  4.70923e-07 Reference value :  4.71463e-07 Reference value :  4.71980e-07 Reference value :  4.72488e-07 Reference value :  4.72975e-07 Reference value :  4.73495e-07 Reference value :  4.74025e-07 Reference value :  4.74575e-07 Reference value :  4.75105e-07 Reference value :  4.75613e-07 Reference value :  4.76111e-07 Reference value :  4.76650e-07 Reference value :  4.77190e-07 Reference value :  4.77720e-07 Reference value :  4.78259e-07 Reference value :  4.78789e-07 Reference value :  4.79339e-07 Reference value :  4.79836e-07 Reference value :  4.80333e-07 Reference value :  4.80873e-07 Reference value :  4.81403e-07 Reference value :  4.81889e-07 Reference value :  4.82409e-07 Reference value :  4.82876e-07 Reference value :  4.83406e-07 Reference value :  4.83906e-07 Reference value :  4.84426e-07 Reference value :  4.84923e-07 Reference value :  4.85422e-07 Reference value :  4.85962e-07 Reference value :  4.86472e-07 Reference value :  4.86971e-07 Reference value :  4.87419e-07 Reference value :  4.87896e-07 Reference value :  4.88373e-07 Reference value :  4.88863e-07 Reference value :  4.89333e-07 Reference value :  4.89803e-07 Reference value :  4.90291e-07 Reference value :  4.90770e-07 Reference value :  4.91260e-07 Reference value :  4.91769e-07 Reference value :  4.92278e-07 Reference value :  4.92798e-07 Reference value :  4.93308e-07 Reference value :  4.93805e-07 Reference value :  4.94293e-07 Reference value :  4.94802e-07 Reference value :  4.95332e-07 Reference value :  4.95842e-07 Reference value :  4.96360e-07 Reference value :  4.96870e-07 Reference value :  4.97400e-07 Reference value :  4.97888e-07 Reference value :  4.98386e-07 Reference value :  4.98906e-07 Reference value :  4.99326e-07 Reference value :  4.99835e-07ERROR: (internal)  This operation is not defined for display type PrinterOnly.
Can't open viewport for graphics.

No. of Data Rows : 50189
tdiffin             =  4.545492e-10 targ=  1.363637e-09 trig=  9.090882e-10
tdiffout            =  9.999997e-08 targ=  3.730889e-07 trig=  2.730889e-07
freqin = 2.199982e+09
freqout = 1.000000e+07
n = 2.199981e+02
ngspice-36 done
