Warning: v1: no DC value, transient time 0 value used
Note: Starting dynamic gmin stepping
Trying gmin =   1.0000E-03 Note: One successful gmin step
Trying gmin =   1.0000E-04 Note: One successful gmin step
Trying gmin =   3.1623E-05 Warning: Further gmin increment
Trying gmin =   7.4989E-05 Note: One successful gmin step
Trying gmin =   4.8697E-05 Warning: Further gmin increment
Trying gmin =   6.7317E-05 Note: One successful gmin step
Trying gmin =   5.7255E-05 Warning: Further gmin increment
Trying gmin =   6.4647E-05 Note: One successful gmin step
Trying gmin =   6.0839E-05 Note: One successful gmin step
Trying gmin =   5.5543E-05 Note: One successful gmin step
Trying gmin =   4.8451E-05 Note: One successful gmin step
Trying gmin =   3.9474E-05 Note: One successful gmin step
Trying gmin =   2.9029E-05 Note: One successful gmin step
Trying gmin =   1.8306E-05 Note: One successful gmin step
Trying gmin =   9.1678E-06 Note: One successful gmin step
Trying gmin =   3.2491E-06 Note: One successful gmin step
Trying gmin =   6.8548E-07 Note: One successful gmin step
Trying gmin =   6.8548E-08 Note: One successful gmin step
Trying gmin =   6.8548E-09 Note: One successful gmin step
Trying gmin =   6.8548E-10 Note: One successful gmin step
Trying gmin =   6.8548E-11 Note: One successful gmin step
Trying gmin =   6.8548E-12 Note: One successful gmin step
Trying gmin =   1.0000E-12 Note: One successful gmin step
Note: Dynamic gmin stepping completed

No compatibility mode selected!


Circuit: * div tb

Doing analysis at TEMP = -40.000000 and TNOM = -40.000000


Initial Transient Solution
--------------------------

Node                                   Voltage
----                                   -------
vdd                                        1.8
p2                                           0
p4                                           0
p1                                         1.8
p3                                           0
p5                                         1.8
p6                                           0
p0                                         1.8
p7                                           0
x1.x1.x2.net1                      1.80545e-09
x1.net1                                    1.8
x1.net2                                    1.8
x1.x1.x2.x1.net1                   9.02724e-10
x1.x1.net3                                 1.8
x1.x1.net1                                 1.8
x1.x1.net2                           0.0201292
x1.x1.x3.net1                           1.3674
fin                                        0.9
x1.x1.x4.net1                       0.00454272
x1.x1.x4.net2                       0.00226971
opennet                                    1.8
x1.x1.fib                            0.0271092
x1.x1.x1.net2                      3.96141e-10
x1.x1.x1.net4                              1.8
x1.x1.x1.net1                              1.8
x1.x1.x1.net5                      7.33455e-09
x1.x1.x1.net3                      6.35453e-10
x1.x1.x6.net2                      3.96141e-10
x1.x1.x6.net4                              1.8
x1.x1.x6.net1                              1.8
x1.x1.x6.net5                      7.33455e-09
x1.x1.x6.net3                      6.35453e-10
x1.x2.x2.net1                      1.80545e-09
x1.net3                                    1.8
x1.net4                                    1.8
x1.x2.x2.x1.net1                   9.02724e-10
x1.x2.net3                                 1.8
x1.x2.net1                                 1.8
x1.x2.net2                         2.51792e-09
x1.x2.x3.net1                          1.36745
x1.x2.x4.net1                      1.67861e-09
x1.x2.x4.net2                      8.39306e-10
x1.x2.fib                          2.76477e-10
x1.x2.x1.net2                      4.69609e-10
x1.x2.x1.net4                              1.8
x1.x2.x1.net1                              1.8
x1.x2.x1.net5                      1.84204e-09
x1.x2.x1.net3                      7.08921e-10
x1.x2.x6.net2                      4.69609e-10
x1.x2.x6.net4                              1.8
x1.x2.x6.net1                              1.8
x1.x2.x6.net5                      1.84204e-09
x1.x2.x6.net3                      7.08921e-10
x1.x3.x2.net1                              1.8
x1.net5                            3.42075e-09
x1.net6                            2.76477e-10
x1.x3.x2.x1.net1                    0.00512376
x1.x3.net3                         7.08921e-10
x1.x3.net1                                 1.8
x1.x3.net2                                 1.8
x1.x3.x3.net1                      1.71038e-09
x1.x3.x4.net1                          1.37523
x1.x3.x4.net2                      1.11543e-13
x1.x3.fib                          2.76477e-10
x1.x3.x1.net2                              1.8
x1.x3.x1.net4                      4.55387e-09
x1.x3.x1.net1                      4.69609e-10
x1.x3.x1.net5                      2.06674e-09
x1.x3.x1.net3                      7.57531e-10
x1.x3.x6.net2                              1.8
x1.x3.x6.net4                      1.84204e-09
x1.x3.x6.net1                      4.69609e-10
x1.x3.x6.net5                      2.06674e-09
x1.x3.x6.net3                      7.57531e-10
x1.x4.x2.net1                      1.80545e-09
x1.net7                                    1.8
x1.net8                                    1.8
x1.x4.x2.x1.net1                   9.02724e-10
x1.x4.net3                                 1.8
x1.x4.net1                         2.76477e-10
x1.x4.net2                                 1.8
x1.x4.x3.net1                      1.57383e-12
x1.x4.x4.net1                       0.00105613
x1.x4.x4.net2                       2.6327e-06
x1.x4.fib                                  1.8
x1.x4.x1.net2                              1.8
x1.x4.x1.net4                      2.06674e-09
x1.x4.x1.net1                      7.57531e-10
x1.x4.x1.net5                              1.8
x1.x4.x1.net3                              1.8
x1.x4.x6.net2                              1.8
x1.x4.x6.net4                      2.06674e-09
x1.x4.x6.net1                      7.57531e-10
x1.x4.x6.net5                              1.8
x1.x4.x6.net3                              1.8
x1.x5.x2.net1                              1.8
x1.net9                            3.42075e-09
x1.net10                           2.76477e-10
x1.x5.x2.x1.net1                    0.00512376
x1.x5.net3                         7.08921e-10
x1.x5.net1                                 1.8
x1.x5.net2                                 1.8
x1.x5.x3.net1                      1.71038e-09
x1.x5.x4.net1                          1.37523
x1.x5.x4.net2                      1.11601e-13
x1.x5.fib                          2.76477e-10
x1.x5.x1.net2                              1.8
x1.x5.x1.net4                      4.55387e-09
x1.x5.x1.net1                      4.69609e-10
x1.x5.x1.net5                      2.06674e-09
x1.x5.x1.net3                      7.57531e-10
x1.x5.x6.net2                              1.8
x1.x5.x6.net4                      1.84204e-09
x1.x5.x6.net1                      4.69609e-10
x1.x5.x6.net5                      2.06674e-09
x1.x5.x6.net3                      7.57531e-10
x1.x6.x2.net1                      1.80545e-09
x1.net11                                   1.8
x1.net12                                   1.8
x1.x6.x2.x1.net1                   9.02724e-10
x1.x6.net3                                 1.8
x1.x6.net1                         2.76477e-10
x1.x6.net2                                 1.8
x1.x6.x3.net1                      1.57388e-12
x1.x6.x4.net1                      0.000540623
x1.x6.x4.net2                      0.000540623
x1.x6.fib                                  1.8
x1.x6.x1.net2                              1.8
x1.x6.x1.net4                      2.06674e-09
x1.x6.x1.net1                      7.57531e-10
x1.x6.x1.net5                              1.8
x1.x6.x1.net3                              1.8
x1.x6.x6.net2                              1.8
x1.x6.x6.net4                      2.06674e-09
x1.x6.x6.net1                      7.57531e-10
x1.x6.x6.net5                              1.8
x1.x6.x6.net3                              1.8
x1.x7.x2.net1                              1.8
x1.net13                           3.42075e-09
x1.net14                           2.76477e-10
x1.x7.x2.x1.net1                    0.00512376
x1.x7.net3                         7.08921e-10
x1.x7.net1                                 1.8
x1.x7.net2                                 1.8
x1.x7.x3.net1                      1.71038e-09
x1.x7.x4.net1                          1.37521
x1.x7.x4.net2                      1.11541e-13
x1.x7.fib                          2.76477e-10
x1.x7.x1.net2                              1.8
x1.x7.x1.net4                      4.55387e-09
x1.x7.x1.net1                      4.69609e-10
x1.x7.x1.net5                      2.06674e-09
x1.x7.x1.net3                      7.57531e-10
x1.x7.x6.net2                              1.8
x1.x7.x6.net4                      1.84204e-09
x1.x7.x6.net1                      4.69609e-10
x1.x7.x6.net5                      2.06674e-09
x1.x7.x6.net3                      7.57531e-10
x1.x8.x2.net1                      1.80545e-09
fout                                       1.8
x1.x8.x2.x1.net1                   9.02724e-10
x1.x8.net3                                 1.8
x1.x8.net1                         2.76477e-10
x1.x8.net2                                 1.8
x1.x8.x3.net1                      1.57388e-12
x1.x8.x4.net1                       0.00105613
x1.x8.x4.net2                       2.6327e-06
x1.x8.fib                                  1.8
x1.x8.x1.net2                              1.8
x1.x8.x1.net4                      2.06674e-09
x1.x8.x1.net1                      7.57531e-10
x1.x8.x1.net5                              1.8
x1.x8.x1.net3                              1.8
x1.x8.x6.net2                              1.8
x1.x8.x6.net4                      2.06674e-09
x1.x8.x6.net1                      7.57531e-10
x1.x8.x6.net5                              1.8
x1.x8.x6.net3                              1.8
v1#branch                                    0
vdd8#branch                                  0
vdd7#branch                                  0
vdd6#branch                                  0
vdd5#branch                                  0
vdd4#branch                                  0
vdd3#branch                                  0
vdd2#branch                                  0
vdd1#branch                                  0
vdd#branch                         -8.8459e-05

 Reference value :  0.00000e+00 Reference value :  5.12800e-10 Reference value :  9.82040e-10 Reference value :  1.42555e-09 Reference value :  1.91319e-09 Reference value :  2.42140e-09 Reference value :  2.90750e-09 Reference value :  3.40205e-09 Reference value :  3.91927e-09 Reference value :  4.44927e-09 Reference value :  4.90114e-09 Reference value :  5.39917e-09 Reference value :  5.87482e-09 Reference value :  6.40482e-09 Reference value :  6.89280e-09 Reference value :  7.37936e-09 Reference value :  7.87581e-09 Reference value :  8.28618e-09 Reference value :  8.75375e-09 Reference value :  9.21764e-09 Reference value :  9.69366e-09 Reference value :  1.02337e-08 Reference value :  1.07837e-08 Reference value :  1.12351e-08 Reference value :  1.17011e-08 Reference value :  1.21863e-08 Reference value :  1.27143e-08 Reference value :  1.32343e-08 Reference value :  1.37314e-08 Reference value :  1.42614e-08 Reference value :  1.47772e-08 Reference value :  1.52420e-08 Reference value :  1.57174e-08 Reference value :  1.62457e-08 Reference value :  1.67655e-08 Reference value :  1.72615e-08 Reference value :  1.77915e-08 Reference value :  1.82971e-08 Reference value :  1.87725e-08 Reference value :  1.93019e-08 Reference value :  1.98417e-08 Reference value :  2.03371e-08 Reference value :  2.08763e-08 Reference value :  2.13963e-08 Reference value :  2.19036e-08 Reference value :  2.24011e-08 Reference value :  2.28786e-08 Reference value :  2.33663e-08 Reference value :  2.38837e-08 Reference value :  2.43717e-08 Reference value :  2.49109e-08 Reference value :  2.54609e-08 Reference value :  2.59709e-08 Reference value :  2.64689e-08 Reference value :  2.69766e-08 Reference value :  2.75157e-08 Reference value :  2.80237e-08 Reference value :  2.85437e-08 Reference value :  2.90514e-08 Reference value :  2.94926e-08 Reference value :  2.99792e-08 Reference value :  3.04871e-08 Reference value :  3.10165e-08 Reference value :  3.15147e-08 Reference value :  3.20247e-08 Reference value :  3.25324e-08 Reference value :  3.30176e-08 Reference value :  3.35273e-08 Reference value :  3.40366e-08 Reference value :  3.45449e-08 Reference value :  3.50445e-08 Reference value :  3.55837e-08 Reference value :  3.60270e-08 Reference value :  3.64619e-08 Reference value :  3.69919e-08 Reference value :  3.75013e-08 Reference value :  3.79865e-08 Reference value :  3.85265e-08 Reference value :  3.90448e-08 Reference value :  3.95297e-08 Reference value :  4.00487e-08 Reference value :  4.05787e-08 Reference value :  4.10858e-08 Reference value :  4.16058e-08 Reference value :  4.21258e-08 Reference value :  4.26658e-08 Reference value :  4.31737e-08 Reference value :  4.36712e-08 Reference value :  4.41694e-08 Reference value :  4.46994e-08 Reference value :  4.51963e-08 Reference value :  4.57255e-08 Reference value :  4.62653e-08 Reference value :  4.67837e-08 Reference value :  4.73137e-08 Reference value :  4.78216e-08 Reference value :  4.83508e-08 Reference value :  4.88591e-08 Reference value :  4.93790e-08 Reference value :  4.99090e-08 Reference value :  5.04057e-08 Reference value :  5.09031e-08 Reference value :  5.13899e-08 Reference value :  5.19099e-08 Reference value :  5.23959e-08 Reference value :  5.29150e-08 Reference value :  5.34550e-08 Reference value :  5.39295e-08 Reference value :  5.44361e-08 Reference value :  5.49659e-08 Reference value :  5.55043e-08 Reference value :  5.60443e-08 Reference value :  5.65743e-08 Reference value :  5.71143e-08 Reference value :  5.76234e-08 Reference value :  5.80788e-08 Reference value :  5.86088e-08 Reference value :  5.91488e-08 Reference value :  5.96558e-08 Reference value :  6.01749e-08 Reference value :  6.07149e-08 Reference value :  6.11897e-08 Reference value :  6.16777e-08 Reference value :  6.21777e-08 Reference value :  6.26844e-08 Reference value :  6.32144e-08 Reference value :  6.37244e-08 Reference value :  6.42544e-08 Reference value :  6.47534e-08 Reference value :  6.52399e-08 Reference value :  6.57491e-08 Reference value :  6.62691e-08 Reference value :  6.67658e-08 Reference value :  6.73050e-08 Reference value :  6.78550e-08 Reference value :  6.83405e-08 Reference value :  6.88596e-08 Reference value :  6.93694e-08 Reference value :  6.98666e-08 Reference value :  7.03866e-08 Reference value :  7.09166e-08 Reference value :  7.14466e-08 Reference value :  7.19766e-08 Reference value :  7.24420e-08 Reference value :  7.29496e-08 Reference value :  7.34596e-08 Reference value :  7.39355e-08 Reference value :  7.44648e-08 Reference value :  7.50148e-08 Reference value :  7.55004e-08 Reference value :  7.60295e-08 Reference value :  7.65394e-08 Reference value :  7.70573e-08 Reference value :  7.75770e-08 Reference value :  7.81270e-08 Reference value :  7.86570e-08 Reference value :  7.91669e-08 Reference value :  7.96219e-08 Reference value :  8.01089e-08 Reference value :  8.06389e-08 Reference value :  8.11366e-08 Reference value :  8.16347e-08 Reference value :  8.21647e-08 Reference value :  8.26623e-08 Reference value :  8.31595e-08 Reference value :  8.36295e-08 Reference value :  8.41689e-08 Reference value :  8.46789e-08 Reference value :  8.51789e-08 Reference value :  8.56989e-08 Reference value :  8.61989e-08 Reference value :  8.66646e-08 Reference value :  8.71343e-08 Reference value :  8.76736e-08 Reference value :  8.81528e-08 Reference value :  8.86728e-08 Reference value :  8.91828e-08 Reference value :  8.96928e-08 Reference value :  9.02128e-08 Reference value :  9.07420e-08 Reference value :  9.12597e-08 Reference value :  9.17797e-08 Reference value :  9.22879e-08 Reference value :  9.28179e-08 Reference value :  9.33471e-08 Reference value :  9.38568e-08 Reference value :  9.43666e-08 Reference value :  9.48966e-08 Reference value :  9.54166e-08 Reference value :  9.59245e-08 Reference value :  9.64545e-08 Reference value :  9.69722e-08 Reference value :  9.74910e-08 Reference value :  9.80010e-08 Reference value :  9.85403e-08 Reference value :  9.90703e-08 Reference value :  9.96103e-08 Reference value :  1.00130e-07 Reference value :  1.00650e-07 Reference value :  1.01125e-07 Reference value :  1.01645e-07 Reference value :  1.02185e-07 Reference value :  1.02704e-07 Reference value :  1.03214e-07 Reference value :  1.03744e-07 Reference value :  1.04264e-07 Reference value :  1.04784e-07 Reference value :  1.05304e-07 Reference value :  1.05833e-07 Reference value :  1.06363e-07 Reference value :  1.06883e-07 Reference value :  1.07413e-07 Reference value :  1.07943e-07 Reference value :  1.08420e-07 Reference value :  1.08898e-07 Reference value :  1.09418e-07 Reference value :  1.09938e-07 Reference value :  1.10445e-07 Reference value :  1.10975e-07 Reference value :  1.11482e-07 Reference value :  1.12001e-07 Reference value :  1.12521e-07 Reference value :  1.13051e-07 Reference value :  1.13581e-07 Reference value :  1.14101e-07 Reference value :  1.14631e-07 Reference value :  1.15171e-07 Reference value :  1.15646e-07 Reference value :  1.16156e-07 Reference value :  1.16676e-07 Reference value :  1.17196e-07 Reference value :  1.17716e-07 Reference value :  1.18246e-07 Reference value :  1.18766e-07 Reference value :  1.19254e-07 Reference value :  1.19784e-07 Reference value :  1.20324e-07 Reference value :  1.20831e-07 Reference value :  1.21371e-07 Reference value :  1.21891e-07 Reference value :  1.22431e-07 Reference value :  1.22909e-07 Reference value :  1.23388e-07 Reference value :  1.23907e-07 Reference value :  1.24427e-07 Reference value :  1.24934e-07 Reference value :  1.25464e-07 Reference value :  1.25962e-07 Reference value :  1.26481e-07 Reference value :  1.26978e-07 Reference value :  1.27518e-07 Reference value :  1.28028e-07 Reference value :  1.28558e-07 Reference value :  1.29078e-07 Reference value :  1.29578e-07 Reference value :  1.30044e-07 Reference value :  1.30512e-07 Reference value :  1.31010e-07 Reference value :  1.31530e-07 Reference value :  1.32038e-07 Reference value :  1.32558e-07 Reference value :  1.33078e-07 Reference value :  1.33558e-07 Reference value :  1.34068e-07 Reference value :  1.34545e-07 Reference value :  1.35045e-07 Reference value :  1.35535e-07 Reference value :  1.36054e-07 Reference value :  1.36509e-07 Reference value :  1.36998e-07 Reference value :  1.37496e-07 Reference value :  1.38026e-07 Reference value :  1.38535e-07 Reference value :  1.39065e-07 Reference value :  1.39605e-07 Reference value :  1.40081e-07 Reference value :  1.40611e-07 Reference value :  1.41141e-07 Reference value :  1.41670e-07 Reference value :  1.42200e-07 Reference value :  1.42730e-07 Reference value :  1.43260e-07 Reference value :  1.43758e-07 Reference value :  1.44247e-07 Reference value :  1.44777e-07 Reference value :  1.45296e-07 Reference value :  1.45826e-07 Reference value :  1.46356e-07 Reference value :  1.46896e-07 Reference value :  1.47416e-07 Reference value :  1.47914e-07 Reference value :  1.48464e-07 Reference value :  1.48984e-07 Reference value :  1.49503e-07 Reference value :  1.50033e-07 Reference value :  1.50543e-07 Reference value :  1.51041e-07 Reference value :  1.51496e-07 Reference value :  1.52045e-07 Reference value :  1.52565e-07 Reference value :  1.53095e-07 Reference value :  1.53635e-07 Reference value :  1.54164e-07 Reference value :  1.54671e-07 Reference value :  1.55181e-07 Reference value :  1.55711e-07 Reference value :  1.56241e-07 Reference value :  1.56761e-07 Reference value :  1.57301e-07 Reference value :  1.57831e-07 Reference value :  1.58318e-07 Reference value :  1.58838e-07 Reference value :  1.59388e-07 Reference value :  1.59875e-07 Reference value :  1.60415e-07 Reference value :  1.60945e-07 Reference value :  1.61465e-07 Reference value :  1.61975e-07 Reference value :  1.62493e-07 Reference value :  1.63033e-07 Reference value :  1.63531e-07 Reference value :  1.64071e-07 Reference value :  1.64611e-07 Reference value :  1.65111e-07 Reference value :  1.65591e-07 Reference value :  1.66101e-07 Reference value :  1.66631e-07 Reference value :  1.67129e-07 Reference value :  1.67658e-07 Reference value :  1.68208e-07 Reference value :  1.68705e-07 Reference value :  1.69205e-07 Reference value :  1.69734e-07 Reference value :  1.70274e-07 Reference value :  1.70804e-07 Reference value :  1.71334e-07 Reference value :  1.71864e-07 Reference value :  1.72342e-07 Reference value :  1.72840e-07 Reference value :  1.73350e-07 Reference value :  1.73860e-07 Reference value :  1.74359e-07 Reference value :  1.74879e-07 Reference value :  1.75419e-07 Reference value :  1.75939e-07 Reference value :  1.76458e-07 Reference value :  1.76988e-07 Reference value :  1.77517e-07 Reference value :  1.78047e-07 Reference value :  1.78577e-07 Reference value :  1.79127e-07 Reference value :  1.79647e-07 Reference value :  1.80135e-07 Reference value :  1.80601e-07 Reference value :  1.81121e-07 Reference value :  1.81618e-07 Reference value :  1.82158e-07 Reference value :  1.82708e-07 Reference value :  1.83215e-07 Reference value :  1.83725e-07 Reference value :  1.84245e-07 Reference value :  1.84775e-07 Reference value :  1.85315e-07 Reference value :  1.85855e-07 Reference value :  1.86395e-07 Reference value :  1.86914e-07 Reference value :  1.87414e-07 Reference value :  1.87934e-07 Reference value :  1.88464e-07 Reference value :  1.89003e-07 Reference value :  1.89483e-07 Reference value :  1.90023e-07 Reference value :  1.90510e-07 Reference value :  1.90988e-07 Reference value :  1.91528e-07 Reference value :  1.91998e-07 Reference value :  1.92528e-07 Reference value :  1.93068e-07 Reference value :  1.93598e-07 Reference value :  1.94098e-07 Reference value :  1.94577e-07 Reference value :  1.95065e-07 Reference value :  1.95575e-07 Reference value :  1.96075e-07 Reference value :  1.96575e-07 Reference value :  1.97075e-07 Reference value :  1.97605e-07 Reference value :  1.98103e-07 Reference value :  1.98591e-07 Reference value :  1.99121e-07 Reference value :  1.99631e-07 Reference value :  2.00139e-07 Reference value :  2.00669e-07 Reference value :  2.01188e-07 Reference value :  2.01698e-07 Reference value :  2.02208e-07 Reference value :  2.02748e-07 Reference value :  2.03257e-07 Reference value :  2.03767e-07 Reference value :  2.04307e-07 Reference value :  2.04825e-07 Reference value :  2.05343e-07 Reference value :  2.05843e-07 Reference value :  2.06383e-07 Reference value :  2.06913e-07 Reference value :  2.07423e-07 Reference value :  2.07963e-07 Reference value :  2.08471e-07 Reference value :  2.08959e-07 Reference value :  2.09429e-07 Reference value :  2.09959e-07 Reference value :  2.10478e-07 Reference value :  2.10998e-07 Reference value :  2.11538e-07 Reference value :  2.12068e-07 Reference value :  2.12545e-07 Reference value :  2.13043e-07 Reference value :  2.13583e-07 Reference value :  2.14103e-07 Reference value :  2.14623e-07 Reference value :  2.15143e-07 Reference value :  2.15643e-07 Reference value :  2.16143e-07 Reference value :  2.16620e-07 Reference value :  2.17140e-07 Reference value :  2.17660e-07 Reference value :  2.18157e-07 Reference value :  2.18697e-07 Reference value :  2.19214e-07 Reference value :  2.19724e-07 Reference value :  2.20244e-07 Reference value :  2.20784e-07 Reference value :  2.21314e-07 Reference value :  2.21844e-07 Reference value :  2.22374e-07 Reference value :  2.22924e-07 Reference value :  2.23411e-07 Reference value :  2.23866e-07 Reference value :  2.24396e-07 Reference value :  2.24925e-07 Reference value :  2.25445e-07 Reference value :  2.25975e-07 Reference value :  2.26515e-07 Reference value :  2.27015e-07 Reference value :  2.27503e-07 Reference value :  2.28043e-07 Reference value :  2.28563e-07 Reference value :  2.29092e-07 Reference value :  2.29612e-07 Reference value :  2.30152e-07 Reference value :  2.30642e-07 Reference value :  2.31120e-07 Reference value :  2.31640e-07 Reference value :  2.32160e-07 Reference value :  2.32658e-07 Reference value :  2.33178e-07 Reference value :  2.33677e-07 Reference value :  2.34167e-07 Reference value :  2.34687e-07 Reference value :  2.35185e-07 Reference value :  2.35695e-07 Reference value :  2.36182e-07 Reference value :  2.36722e-07 Reference value :  2.37200e-07 Reference value :  2.37668e-07 Reference value :  2.38198e-07 Reference value :  2.38727e-07 Reference value :  2.39237e-07 Reference value :  2.39777e-07 Reference value :  2.40285e-07 Reference value :  2.40772e-07 Reference value :  2.41312e-07 Reference value :  2.41832e-07 Reference value :  2.42362e-07 Reference value :  2.42892e-07 Reference value :  2.43432e-07 Reference value :  2.43942e-07 Reference value :  2.44451e-07 Reference value :  2.44980e-07 Reference value :  2.45510e-07 Reference value :  2.46030e-07 Reference value :  2.46540e-07 Reference value :  2.47070e-07 Reference value :  2.47590e-07 Reference value :  2.48090e-07 Reference value :  2.48599e-07 Reference value :  2.49129e-07 Reference value :  2.49649e-07 Reference value :  2.50169e-07 Reference value :  2.50719e-07 Reference value :  2.51219e-07 Reference value :  2.51707e-07 Reference value :  2.52170e-07 Reference value :  2.52700e-07 Reference value :  2.53210e-07 Reference value :  2.53730e-07 Reference value :  2.54280e-07 Reference value :  2.54756e-07 Reference value :  2.55275e-07 Reference value :  2.55785e-07 Reference value :  2.56305e-07 Reference value :  2.56835e-07 Reference value :  2.57365e-07 Reference value :  2.57895e-07 Reference value :  2.58393e-07 Reference value :  2.58861e-07 Reference value :  2.59391e-07 Reference value :  2.59910e-07 Reference value :  2.60430e-07 Reference value :  2.60960e-07 Reference value :  2.61500e-07 Reference value :  2.62030e-07 Reference value :  2.62550e-07 Reference value :  2.63069e-07 Reference value :  2.63599e-07 Reference value :  2.64129e-07 Reference value :  2.64649e-07 Reference value :  2.65199e-07 Reference value :  2.65699e-07 Reference value :  2.66187e-07 Reference value :  2.66685e-07 Reference value :  2.67205e-07 Reference value :  2.67681e-07 Reference value :  2.68211e-07 Reference value :  2.68751e-07 Reference value :  2.69280e-07 Reference value :  2.69790e-07 Reference value :  2.70310e-07 Reference value :  2.70840e-07 Reference value :  2.71370e-07 Reference value :  2.71880e-07 Reference value :  2.72420e-07 Reference value :  2.72928e-07 Reference value :  2.73428e-07 Reference value :  2.73938e-07 Reference value :  2.74478e-07 Reference value :  2.75008e-07 Reference value :  2.75538e-07 Reference value :  2.76088e-07 Reference value :  2.76607e-07 Reference value :  2.77127e-07 Reference value :  2.77657e-07 Reference value :  2.78187e-07 Reference value :  2.78707e-07 Reference value :  2.79237e-07 Reference value :  2.79777e-07 Reference value :  2.80284e-07 Reference value :  2.80783e-07 Reference value :  2.81283e-07 Reference value :  2.81813e-07 Reference value :  2.82311e-07 Reference value :  2.82851e-07 Reference value :  2.83381e-07 Reference value :  2.83890e-07 Reference value :  2.84388e-07 Reference value :  2.84896e-07 Reference value :  2.85426e-07 Reference value :  2.85956e-07 Reference value :  2.86476e-07 Reference value :  2.87016e-07 Reference value :  2.87526e-07