
Note: No compatibility mode selected!


Circuit: ** sch_path: /home/mohamed/simulations/divider_tb.sch

Doing analysis at TEMP = 27.000000 and TNOM = 27.000000

Warning: v1: no DC value, transient time 0 value used
Note: Starting dynamic gmin stepping
Trying gmin =   1.0000E-03 Note: One successful gmin step
Trying gmin =   1.0000E-04 Note: One successful gmin step
Trying gmin =   1.0000E-05 Note: One successful gmin step
Trying gmin =   1.0000E-06 Warning: Further gmin increment
Trying gmin =   5.6234E-06 Warning: Further gmin increment
Trying gmin =   8.6596E-06 Warning: Further gmin increment
Trying gmin =   9.6466E-06 Warning: Further gmin increment
Trying gmin =   9.9105E-06 Note: One successful gmin step
Trying gmin =   9.7776E-06 Note: One successful gmin step
Trying gmin =   9.5818E-06 Warning: Further gmin increment
Trying gmin =   9.7283E-06 Note: One successful gmin step
Trying gmin =   9.6548E-06 Warning: Further gmin increment
Trying gmin =   9.7099E-06 Note: One successful gmin step
Trying gmin =   9.6823E-06 Note: One successful gmin step
Trying gmin =   9.6410E-06 Warning: Further gmin increment
Trying gmin =   9.6719E-06 Note: One successful gmin step
Trying gmin =   9.6565E-06 Warning: Further gmin increment
Trying gmin =   9.6681E-06 Note: One successful gmin step
Trying gmin =   9.6623E-06 Note: One successful gmin step
Trying gmin =   9.6536E-06 Warning: Further gmin increment
Trying gmin =   9.6601E-06 Warning: Further gmin increment
Trying gmin =   9.6617E-06 Note: One successful gmin step
Trying gmin =   9.6609E-06 Note: One successful gmin step
Trying gmin =   9.6597E-06 Warning: Further gmin increment
Trying gmin =   9.6606E-06 Note: One successful gmin step
Trying gmin =   9.6601E-06 Warning: Last gmin step failed
Warning: Dynamic gmin stepping failed
Note: Starting true gmin stepping
Trying gmin =   1.0000E-03 Note: One successful gmin step
Trying gmin =   1.0000E-04 Note: One successful gmin step
Trying gmin =   3.1623E-05 Warning: Further gmin increment
Trying gmin =   7.4989E-05 Note: One successful gmin step
Trying gmin =   4.8697E-05 Warning: Further gmin increment
Trying gmin =   6.7317E-05 Note: One successful gmin step
Trying gmin =   5.7255E-05 Note: One successful gmin step
Trying gmin =   4.4910E-05 Note: One successful gmin step
Trying gmin =   3.9775E-05 Note: One successful gmin step
Trying gmin =   3.3152E-05 Note: One successful gmin step
Trying gmin =   2.5226E-05 Note: One successful gmin step
Trying gmin =   1.6745E-05 Note: One successful gmin step
Trying gmin =   9.0554E-06 Note: One successful gmin step
Trying gmin =   3.6013E-06 Note: One successful gmin step
Trying gmin =   9.0319E-07 Note: One successful gmin step
Trying gmin =   1.1344E-07 Note: One successful gmin step
Trying gmin =   1.1344E-08 Note: One successful gmin step
Trying gmin =   1.1344E-09 Note: One successful gmin step
Trying gmin =   1.1344E-10 Note: One successful gmin step
Trying gmin =   1.1344E-11 Note: One successful gmin step
Trying gmin =   3.5873E-12 Warning: Further gmin increment
Trying gmin =   8.5068E-12 Warning: Further gmin increment
Trying gmin =   1.0556E-11 Note: One successful gmin step
Trying gmin =   1.0183E-11 Warning: Further gmin increment
Trying gmin =   1.0462E-11 Warning: Further gmin increment
Trying gmin =   1.0533E-11 Warning: Further gmin increment
Trying gmin =   1.0550E-11 Warning: Further gmin increment
Trying gmin =   1.0555E-11 Warning: Further gmin increment
Trying gmin =   1.0556E-11 Warning: Last gmin step failed
Note: True gmin stepping completed

Initial Transient Solution
--------------------------

Node                                   Voltage
----                                   -------
vdd                                        1.8
p2                                           0
p4                                         1.8
p1                                         1.8
p3                                         1.8
p5                                           0
p6                                           0
p0                                         1.8
p7                                           0
x1.x5.x2.net1                      7.41615e-06
x1.net1                                    1.8
x1.net4                                1.56659
x1.x5.x2.x1.net1                   4.00787e-06
x1.x5.net2                                 1.8
x1.x5.net3                             1.76787
x1.x5.net1                         5.59033e-07
x1.x5.x3.net1                          1.44901
x1.net2                                    1.8
x1.x5.x4.net1                      3.73643e-07
x1.x5.x4.net2                      1.88253e-07
x1.net3                                1.76796
x1.x5.fib                           1.4458e-07
x1.x5.x1.net1                         0.352135
x1.x5.x1.net3                      1.21142e-07
x1.x5.x1.net2                      6.05708e-08
x1.x5.x1.net4                              1.8
x1.x5.x1.net5                        0.0418056
x1.x5.x6.net1                         0.352135
x1.x5.x6.net3                      1.21141e-07
x1.x5.x6.net2                      6.05705e-08
x1.x5.x6.net4                              1.8
x1.x5.x6.net5                        0.0418066
x1.x6.x2.net1                              1.8
x1.net5                            7.36718e-06
x1.net6                             6.0202e-06
x1.x6.x2.x1.net1                     0.0726933
x1.x6.net2                          1.4458e-07
x1.x6.net3                             1.56704
x1.x6.net1                                 1.8
x1.x6.x3.net1                      3.38651e-06
x1.x6.x4.net1                          1.48639
x1.x6.x4.net2                      1.04426e-10
x1.x6.fib                           1.4458e-07
x1.x6.x1.net1                              1.8
x1.x6.x1.net3                              1.8
x1.x6.x1.net2                          1.45514
x1.x6.x1.net4                          1.77263
x1.x6.x1.net5                      1.26016e-10
x1.x6.x6.net1                              1.8
x1.x6.x6.net3                              1.8
x1.x6.x6.net2                          1.45514
x1.x6.x6.net4                          1.77261
x1.x6.x6.net5                      1.25962e-10
x1.x7.x2.net1                      7.39303e-06
x1.net7                                    1.8
x1.net8                                1.56681
x1.x7.x2.x1.net1                   3.99503e-06
x1.x7.net2                                 1.8
x1.x7.net3                         6.03383e-06
x1.x7.net1                                 1.8
x1.x7.x3.net1                      5.96358e-10
x1.x7.x4.net1                        0.0535547
x1.x7.x4.net2                        0.0107132
x1.x7.fib                                  1.8
x1.x7.x1.net1                          1.77255
x1.x7.x1.net3                          1.56608
x1.x7.x1.net2                      1.25924e-10
x1.x7.x1.net4                         0.529215
x1.x7.x1.net5                       3.2785e-06
x1.x7.x6.net1                          1.77257
x1.x7.x6.net3                          1.56624
x1.x7.x6.net2                      1.25944e-10
x1.x7.x6.net4                           0.5291
x1.x7.x6.net5                      3.27089e-06
x1.x8.x2.net1                              1.8
fout                               7.50692e-06
x1.x8.x2.x1.net1                   5.96379e-10
x1.x8.net2                          1.4458e-07
x1.x8.net3                             1.56575
x1.x8.net1                                 1.8
x1.x8.x3.net1                      3.44863e-06
x1.x8.x4.net1                          1.48637
x1.x8.x4.net2                      1.04406e-10
x1.x8.fib                           1.4458e-07
x1.x8.x1.net1                              1.8
x1.x8.x1.net3                              1.8
x1.x8.x1.net2                          1.45514
x1.x8.x1.net4                          1.77251
x1.x8.x1.net5                       1.2586e-10
x1.x8.x6.net1                              1.8
x1.x8.x6.net3                              1.8
x1.x8.x6.net2                          1.45514
x1.x8.x6.net4                          1.77262
x1.x8.x6.net5                      1.25988e-10
x1.x1.x2.net1                      4.17761e-07
x1.x1.x2.x1.net1                    2.1078e-07
x1.x1.net2                                 1.8
x1.x1.net3                         6.01421e-06
x1.x1.net1                                 1.8
x1.x1.x3.net1                      5.96357e-10
x1.net9                            7.49741e-06
x1.x1.x4.net1                        0.0414139
x1.x1.x4.net2                        0.0414139
x1.net10                            5.9597e-06
x1.x1.fib                                  1.8
x1.x1.x1.net1                          1.77257
x1.x1.x1.net3                          1.56631
x1.x1.x1.net2                      1.25952e-10
x1.x1.x1.net4                         0.529052
x1.x1.x1.net5                      3.26754e-06
x1.x1.x6.net1                          1.77259
x1.x1.x6.net3                          1.56696
x1.x1.x6.net2                       1.2603e-10
x1.x1.x6.net4                         0.528608
x1.x1.x6.net5                      3.23706e-06
x1.x2.x2.net1                              1.8
x1.x2.x2.x1.net1                      0.072691
x1.x2.net2                          1.4458e-07
x1.x2.net3                             1.56584
x1.x2.net1                                 1.8
x1.x2.x3.net1                      3.44441e-06
x1.net11                                   1.8
x1.x2.x4.net1                          1.48639
x1.x2.x4.net2                      1.04484e-10
x1.net12                               1.56589
x1.x2.fib                           1.4458e-07
x1.x2.x1.net1                              1.8
x1.x2.x1.net3                              1.8
x1.x2.x1.net2                          1.45514
x1.x2.x1.net4                          1.77254
x1.x2.x1.net5                      1.25871e-10
x1.x2.x6.net1                              1.8
x1.x2.x6.net3                              1.8
x1.x2.x6.net2                          1.45514
x1.x2.x6.net4                          1.77256
x1.x2.x6.net5                      1.25877e-10
x1.x3.x2.net1                      7.49027e-06
x1.x3.x2.x1.net1                     4.049e-06
x1.x3.net2                                 1.8
x1.x3.net3                             1.76793
x1.x3.net1                         5.59671e-07
x1.x3.x3.net1                          1.44904
x1.net13                                   1.8
x1.x3.x4.net1                      3.74073e-07
x1.x3.x4.net2                      1.88476e-07
x1.net14                               1.76784
x1.x3.fib                           1.4458e-07
x1.x3.x1.net1                         0.352135
x1.x3.x1.net3                      1.21141e-07
x1.x3.x1.net2                      6.05707e-08
x1.x3.x1.net4                              1.8
x1.x3.x1.net5                        0.0418086
x1.x3.x6.net1                         0.352135
x1.x3.x6.net3                      1.21142e-07
x1.x3.x6.net2                      6.05708e-08
x1.x3.x6.net4                              1.8
x1.x3.x6.net5                        0.0418047
x1.x4.x2.net1                      4.18407e-07
x1.x4.x2.x1.net1                   2.11113e-07
x1.x4.net2                                 1.8
x1.x4.net3                                 1.8
x1.x4.net1                           0.0614494
x1.x4.x3.net1                          1.44763
fin                                        0.9
x1.x4.x4.net1                        0.0152704
x1.x4.x4.net2                       0.00761542
opennet                                    1.8
x1.x4.fib                             0.342053
x1.x4.x1.net1                         0.607838
x1.x4.x1.net3                      1.98964e-07
x1.x4.x1.net2                      3.07279e-08
x1.x4.x1.net4                              1.8
x1.x4.x1.net5                         0.267373
x1.x4.x6.net1                         0.607838
x1.x4.x6.net3                      1.98963e-07
x1.x4.x6.net2                      3.07278e-08
x1.x4.x6.net4                              1.8
x1.x4.x6.net5                         0.267376
v1#branch                                    0
vdd8#branch                                  0
vdd7#branch                                  0
vdd6#branch                                  0
vdd5#branch                                  0
vdd4#branch                                  0
vdd3#branch                                  0
vdd2#branch                                  0
vdd1#branch                                  0
vdd#branch                        -0.000131593


No. of Data Rows : 50008

  Measurements for Transient Analysis

tdiff               =  1.000000e-07 targ=  2.990761e-07 trig=  1.990761e-07
f_out               =  1.00000e+07
n                   =  2.29000e+02

ngspice-37 done
