
Note: No compatibility mode selected!


Circuit: ** sch_path: /home/mohamed/simulations/divider_tb.sch

Doing analysis at TEMP = 27.000000 and TNOM = 27.000000

Warning: v1: no DC value, transient time 0 value used
Note: Starting dynamic gmin stepping
Trying gmin =   1.0000E-03 Note: One successful gmin step
Trying gmin =   1.0000E-04 Note: One successful gmin step
Trying gmin =   1.0000E-05 Note: One successful gmin step
Trying gmin =   1.0000E-06 Warning: Further gmin increment
Trying gmin =   5.6234E-06 Warning: Further gmin increment
Trying gmin =   8.6596E-06 Note: One successful gmin step
Trying gmin =   8.0584E-06 Warning: Further gmin increment
Trying gmin =   8.5053E-06 Note: One successful gmin step
Trying gmin =   8.2788E-06 Note: One successful gmin step
Trying gmin =   7.9504E-06 Note: One successful gmin step
Trying gmin =   7.4821E-06 Warning: Further gmin increment
Trying gmin =   7.8307E-06 Note: One successful gmin step
Trying gmin =   7.6544E-06 Note: One successful gmin step
Trying gmin =   7.3974E-06 Warning: Further gmin increment
Trying gmin =   7.5893E-06 Note: One successful gmin step
Trying gmin =   7.4928E-06 Warning: Further gmin increment
Trying gmin =   7.5651E-06 Note: One successful gmin step
Trying gmin =   7.5288E-06 Warning: Further gmin increment
Trying gmin =   7.5560E-06 Note: One successful gmin step
Trying gmin =   7.5424E-06 Note: One successful gmin step
Trying gmin =   7.5220E-06 Note: One successful gmin step
Trying gmin =   7.4916E-06 Note: One successful gmin step
Trying gmin =   7.4462E-06 Note: One successful gmin step
Trying gmin =   7.3787E-06 Note: One successful gmin step
Trying gmin =   7.2784E-06 Note: One successful gmin step
Trying gmin =   7.1306E-06 Note: One successful gmin step
Trying gmin =   6.9146E-06 Note: One successful gmin step
Trying gmin =   6.6027E-06 Note: One successful gmin step
Trying gmin =   6.1610E-06 Note: One successful gmin step
Trying gmin =   5.5533E-06 Note: One successful gmin step
Trying gmin =   4.7522E-06 Note: One successful gmin step
Trying gmin =   3.7620E-06 Warning: Further gmin increment
Trying gmin =   4.4826E-06 Note: One successful gmin step
Trying gmin =   4.1065E-06 Note: One successful gmin step
Trying gmin =   3.6007E-06 Note: One successful gmin step
Trying gmin =   3.3717E-06 Note: One successful gmin step
Trying gmin =   3.0552E-06 Note: One successful gmin step
Trying gmin =   2.6353E-06 Note: One successful gmin step
Trying gmin =   2.1110E-06 Note: One successful gmin step
Trying gmin =   1.5136E-06 Note: One successful gmin step
Trying gmin =   9.1892E-07 Warning: Further gmin increment
Trying gmin =   1.3361E-06 Warning: Further gmin increment
Trying gmin =   1.4671E-06 Note: One successful gmin step
Trying gmin =   1.4001E-06 Warning: Further gmin increment
Trying gmin =   1.4501E-06 Note: One successful gmin step
Trying gmin =   1.4248E-06 Note: One successful gmin step
Trying gmin =   1.3878E-06 Warning: Further gmin increment
Trying gmin =   1.4155E-06 Warning: Further gmin increment
Trying gmin =   1.4225E-06 Warning: Further gmin increment
Trying gmin =   1.4242E-06 Note: One successful gmin step
Trying gmin =   1.4234E-06 Warning: Further gmin increment
Trying gmin =   1.4240E-06 Note: One successful gmin step
Trying gmin =   1.4237E-06 Warning: Further gmin increment
Trying gmin =   1.4239E-06 Note: One successful gmin step
Trying gmin =   1.4238E-06 Note: One successful gmin step
Trying gmin =   1.4236E-06 Warning: Further gmin increment
Trying gmin =   1.4238E-06 Note: One successful gmin step
Trying gmin =   1.4237E-06 Warning: Last gmin step failed
Warning: Dynamic gmin stepping failed
Note: Starting true gmin stepping
Trying gmin =   1.0000E-03 Note: One successful gmin step
Trying gmin =   1.0000E-04 Note: One successful gmin step
Trying gmin =   1.0000E-05 Warning: Further gmin increment
Trying gmin =   5.6234E-05 Note: One successful gmin step
Trying gmin =   4.2170E-05 Note: One successful gmin step
Trying gmin =   3.6517E-05 Note: One successful gmin step
Trying gmin =   2.9427E-05 Note: One successful gmin step
Trying gmin =   2.1288E-05 Note: One successful gmin step
Trying gmin =   1.3097E-05 Note: One successful gmin step
Trying gmin =   6.3209E-06 Note: One successful gmin step
Trying gmin =   2.1192E-06 Note: One successful gmin step
Trying gmin =   4.1139E-07 Note: One successful gmin step
Trying gmin =   4.1139E-08 Note: One successful gmin step
Trying gmin =   4.1139E-09 Note: One successful gmin step
Trying gmin =   4.1139E-10 Note: One successful gmin step
Trying gmin =   4.1139E-11 Note: One successful gmin step
Trying gmin =   4.1139E-12 Warning: Further gmin increment
Trying gmin =   2.3134E-11 Note: One successful gmin step
Trying gmin =   1.3009E-11 Warning: Further gmin increment
Trying gmin =   2.0034E-11 Warning: Further gmin increment
Trying gmin =   2.2317E-11 Note: One successful gmin step
Trying gmin =   2.1144E-11 Note: One successful gmin step
Trying gmin =   2.0034E-11 Note: One successful gmin step
Trying gmin =   1.9500E-11 Note: One successful gmin step
Trying gmin =   1.8727E-11 Note: One successful gmin step
Trying gmin =   1.8352E-11 Note: One successful gmin step
Trying gmin =   1.8167E-11 Note: One successful gmin step
Trying gmin =   1.8075E-11 Note: One successful gmin step
Trying gmin =   1.8029E-11 Note: One successful gmin step
Trying gmin =   1.7984E-11 Note: One successful gmin step
Trying gmin =   1.7916E-11 Note: One successful gmin step
Trying gmin =   1.7814E-11 Note: One successful gmin step
Trying gmin =   1.7763E-11 Note: One successful gmin step
Trying gmin =   1.7713E-11 Note: One successful gmin step
Trying gmin =   1.7663E-11 Warning: Further gmin increment
Trying gmin =   1.7700E-11 Note: One successful gmin step
Trying gmin =   1.7681E-11 Warning: Further gmin increment
Trying gmin =   1.7696E-11 Note: One successful gmin step
Trying gmin =   1.7691E-11 Note: One successful gmin step
Trying gmin =   1.7684E-11 Note: One successful gmin step
Trying gmin =   1.7677E-11 Warning: Further gmin increment
Trying gmin =   1.7682E-11 Note: One successful gmin step
Trying gmin =   1.7679E-11 Note: One successful gmin step
Trying gmin =   1.7675E-11 Warning: Further gmin increment
Trying gmin =   1.7678E-11 Note: One successful gmin step
Trying gmin =   1.7677E-11 Note: One successful gmin step
Trying gmin =   1.7676E-11 Note: One successful gmin step
Trying gmin =   1.7675E-11 Warning: Further gmin increment
Trying gmin =   1.7676E-11 Warning: Last gmin step failed
Note: True gmin stepping completed

Initial Transient Solution
--------------------------

Node                                   Voltage
----                                   -------
vdd                                        1.8
p2                                           0
p4                                           0
p1                                           0
p3                                           0
p5                                         1.8
p6                                           0
p0                                         1.8
p7                                           0
x1.x5.x2.net1                      4.18349e-07
x1.net1                                    1.8
x1.net4                                1.76785
x1.x5.x2.x1.net1                   2.11083e-07
x1.x5.net2                                 1.8
x1.x5.net3                         6.06354e-06
x1.x5.net1                                 1.8
x1.x5.x3.net1                      5.96358e-10
x1.net2                            7.43142e-06
x1.x5.x4.net1                        0.0535679
x1.x5.x4.net2                        0.0107142
x1.net3                            5.99788e-06
x1.x5.fib                                  1.8
x1.x5.x1.net1                           1.7725
x1.x5.x1.net3                          1.56574
x1.x5.x1.net2                      1.25883e-10
x1.x5.x1.net4                         0.529449
x1.x5.x1.net5                      3.29513e-06
x1.x5.x6.net1                          1.77255
x1.x5.x6.net3                           1.5665
x1.x5.x6.net2                      1.25975e-10
x1.x5.x6.net4                          0.52892
x1.x5.x6.net5                       3.2584e-06
x1.x6.x2.net1                      7.42057e-06
x1.net5                                    1.8
x1.net6                                1.56655
x1.x6.x2.x1.net1                   4.01032e-06
x1.x6.net2                                 1.8
x1.x6.net3                             1.76784
x1.x6.net1                         5.59614e-07
x1.x6.x3.net1                          1.44896
x1.x6.x4.net1                      3.74035e-07
x1.x6.x4.net2                      1.88456e-07
x1.x6.fib                           1.4458e-07
x1.x6.x1.net1                         0.352135
x1.x6.x1.net3                      1.21141e-07
x1.x6.x1.net2                      6.05707e-08
x1.x6.x1.net4                              1.8
x1.x6.x1.net5                        0.0418065
x1.x6.x6.net1                         0.352135
x1.x6.x6.net3                      1.21141e-07
x1.x6.x6.net2                      6.05707e-08
x1.x6.x6.net4                              1.8
x1.x6.x6.net5                        0.0418181
x1.x7.x2.net1                              1.8
x1.net7                            7.43809e-06
x1.net8                            5.96208e-06
x1.x7.x2.x1.net1                     0.0726891
x1.x7.net2                          1.4458e-07
x1.x7.net3                             1.56638
x1.x7.net1                                 1.8
x1.x7.x3.net1                      3.41804e-06
x1.x7.x4.net1                          1.48637
x1.x7.x4.net2                      1.04427e-10
x1.x7.fib                           1.4458e-07
x1.x7.x1.net1                              1.8
x1.x7.x1.net3                              1.8
x1.x7.x1.net2                          1.45515
x1.x7.x1.net4                           1.7726
x1.x7.x1.net5                      1.25937e-10
x1.x7.x6.net1                              1.8
x1.x7.x6.net3                              1.8
x1.x7.x6.net2                          1.45515
x1.x7.x6.net4                          1.77259
x1.x7.x6.net5                      1.25957e-10
x1.x8.x2.net1                      2.87876e-07
fout                                       1.8
x1.x8.x2.x1.net1                   1.43938e-07
x1.x8.net2                                 1.8
x1.x8.net3                         6.04896e-06
x1.x8.net1                                 1.8
x1.x8.x3.net1                      5.96358e-10
x1.x8.x4.net1                        0.0535519
x1.x8.x4.net2                         0.010713
x1.x8.fib                                  1.8
x1.x8.x1.net1                          1.77253
x1.x8.x1.net3                          1.56591
x1.x8.x1.net2                      1.25903e-10
x1.x8.x1.net4                         0.529333
x1.x8.x1.net5                      3.28697e-06
x1.x8.x6.net1                          1.77262
x1.x8.x6.net3                          1.56693
x1.x8.x6.net2                      1.26026e-10
x1.x8.x6.net4                         0.528628
x1.x8.x6.net5                       3.2384e-06
x1.x1.x2.net1                              1.8
x1.x1.x2.x1.net1                     0.0726879
x1.x1.net2                          1.4458e-07
x1.x1.net3                             1.56645
x1.x1.net1                                 1.8
x1.x1.x3.net1                      3.41507e-06
x1.net9                                    1.8
x1.x1.x4.net1                          1.48638
x1.x1.x4.net2                      1.04505e-10
x1.net10                               1.56562
x1.x1.fib                           1.4458e-07
x1.x1.x1.net1                              1.8
x1.x1.x1.net3                              1.8
x1.x1.x1.net2                          1.45514
x1.x1.x1.net4                          1.77258
x1.x1.x1.net5                      1.25944e-10
x1.x1.x6.net1                              1.8
x1.x1.x6.net3                              1.8
x1.x1.x6.net2                          1.45515
x1.x1.x6.net4                           1.7725
x1.x1.x6.net5                      1.25844e-10
x1.x2.x2.net1                      7.51965e-06
x1.x2.x2.x1.net1                   4.06532e-06
x1.x2.net2                                 1.8
x1.x2.net3                         6.08373e-06
x1.x2.net1                                 1.8
x1.x2.x3.net1                      5.96358e-10
x1.net11                           7.36569e-06
x1.x2.x4.net1                        0.0535697
x1.x2.x4.net2                        0.0107162
x1.net12                           6.04576e-06
x1.x2.fib                                  1.8
x1.x2.x1.net1                           1.7725
x1.x2.x1.net3                          1.56548
x1.x2.x1.net2                      1.25852e-10
x1.x2.x1.net4                         0.529626
x1.x2.x1.net5                      3.30638e-06
x1.x2.x6.net1                          1.77253
x1.x2.x6.net3                          1.56594
x1.x2.x6.net2                      1.25908e-10
x1.x2.x6.net4                         0.529307
x1.x2.x6.net5                      3.28518e-06
x1.x3.x2.net1                              1.8
x1.x3.x2.x1.net1                      0.072693
x1.x3.net2                          1.4458e-07
x1.x3.net3                             1.56706
x1.x3.net1                                 1.8
x1.x3.x3.net1                      3.38583e-06
x1.net13                                   1.8
x1.x3.x4.net1                          1.48641
x1.x3.x4.net2                      1.04401e-10
x1.net14                               1.56691
x1.x3.fib                           1.4458e-07
x1.x3.x1.net1                              1.8
x1.x3.x1.net3                              1.8
x1.x3.x1.net2                          1.45514
x1.x3.x1.net4                          1.77263
x1.x3.x1.net5                      1.26019e-10
x1.x3.x6.net1                              1.8
x1.x3.x6.net3                              1.8
x1.x3.x6.net2                          1.45514
x1.x3.x6.net4                          1.77262
x1.x3.x6.net5                         1.26e-10
x1.x4.x2.net1                      7.38238e-06
x1.x4.x2.x1.net1                   3.98912e-06
x1.x4.net2                                 1.8
x1.x4.net3                                 1.8
x1.x4.net1                           0.0614494
x1.x4.x3.net1                          1.44763
fin                                        0.9
x1.x4.x4.net1                        0.0152704
x1.x4.x4.net2                       0.00761542
opennet                                    1.8
x1.x4.fib                             0.342053
x1.x4.x1.net1                         0.607838
x1.x4.x1.net3                      1.98963e-07
x1.x4.x1.net2                      3.07277e-08
x1.x4.x1.net4                              1.8
x1.x4.x1.net5                         0.267374
x1.x4.x6.net1                         0.607838
x1.x4.x6.net3                      1.98963e-07
x1.x4.x6.net2                      3.07277e-08
x1.x4.x6.net4                              1.8
x1.x4.x6.net5                         0.267373
v1#branch                                    0
vdd8#branch                                  0
vdd7#branch                                  0
vdd6#branch                                  0
vdd5#branch                                  0
vdd4#branch                                  0
vdd3#branch                                  0
vdd2#branch                                  0
vdd1#branch                                  0
vdd#branch                        -0.000131607


No. of Data Rows : 50008

  Measurements for Transient Analysis

tdiff               =  9.999999e-08 targ=  3.757059e-07 trig=  2.757059e-07
f_out               =  1.00000e+07
n                   =  2.23000e+02

ngspice-37 done
