
Note: No compatibility mode selected!


Circuit: ** sch_path: /home/monem/simulations/divider_tb.sch

Doing analysis at TEMP = 125.000000 and TNOM = 27.000000

Warning: v1: no DC value, transient time 0 value used
Note: Starting dynamic gmin stepping
Trying gmin =   1.0000E-03 Note: One successful gmin step
Trying gmin =   1.0000E-04 Note: One successful gmin step
Trying gmin =   1.0000E-05 Note: One successful gmin step
Trying gmin =   1.0000E-06 Warning: Further gmin increment
Trying gmin =   5.6234E-06 Note: One successful gmin step
Trying gmin =   2.3714E-06 Note: One successful gmin step
Trying gmin =   6.4938E-07 Warning: Further gmin increment
Trying gmin =   1.7154E-06 Note: One successful gmin step
Trying gmin =   1.0554E-06 Warning: Further gmin increment
Trying gmin =   1.5193E-06 Warning: Further gmin increment
Trying gmin =   1.6641E-06 Note: One successful gmin step
Trying gmin =   1.5901E-06 Note: One successful gmin step
Trying gmin =   1.4851E-06 Warning: Further gmin increment
Trying gmin =   1.5631E-06 Note: One successful gmin step
Trying gmin =   1.5236E-06 Warning: Further gmin increment
Trying gmin =   1.5532E-06 Note: One successful gmin step
Trying gmin =   1.5383E-06 Note: One successful gmin step
Trying gmin =   1.5163E-06 Warning: Further gmin increment
Trying gmin =   1.5328E-06 Note: One successful gmin step
Trying gmin =   1.5245E-06 Note: One successful gmin step
Trying gmin =   1.5122E-06 Warning: Further gmin increment
Trying gmin =   1.5214E-06 Note: One successful gmin step
Trying gmin =   1.5199E-06 Warning: Further gmin increment
Trying gmin =   1.5211E-06 Note: One successful gmin step
Trying gmin =   1.5205E-06 Warning: Further gmin increment
Trying gmin =   1.5209E-06 Note: One successful gmin step
Trying gmin =   1.5207E-06 Warning: Further gmin increment
Trying gmin =   1.5209E-06 Note: One successful gmin step
Trying gmin =   1.5208E-06 Warning: Further gmin increment
Trying gmin =   1.5208E-06 Note: One successful gmin step
Trying gmin =   1.5208E-06 Warning: Last gmin step failed
Warning: Dynamic gmin stepping failed
Note: Starting true gmin stepping
Trying gmin =   1.0000E-03 Note: One successful gmin step
Trying gmin =   1.0000E-04 Note: One successful gmin step
Trying gmin =   1.0000E-05 Note: One successful gmin step
Trying gmin =   1.0000E-06 Note: One successful gmin step
Trying gmin =   1.0000E-07 Note: One successful gmin step
Trying gmin =   1.0000E-08 Note: One successful gmin step
Trying gmin =   1.0000E-09 Note: One successful gmin step
Trying gmin =   1.0000E-10 Note: One successful gmin step
Trying gmin =   1.0000E-11 Note: One successful gmin step
Trying gmin =   1.0000E-12 Note: One successful gmin step
Trying gmin =   1.0000E-12 Note: One successful gmin step
Note: True gmin stepping completed

Initial Transient Solution
--------------------------

Node                                   Voltage
----                                   -------
vdd                                        1.8
p2                                           0
p4                                         1.8
p1                                           0
p3                                           0
p5                                           0
p6                                           0
p0                                           0
p7                                           0
x1.x1.x2.net1                              1.8
x1.net1                               0.472382
x1.net2                            0.000139143
x1.x1.x2.x1.net1                      0.453212
x1.x1.net3                         0.000139168
x1.x1.net1                            0.897713
x1.x1.net2                                 1.8
x1.x1.x3.net1                        0.0344368
fin                                        0.9
x1.x1.x4.net1                         0.804948
x1.x1.x4.net2                        0.0373428
opennet                            0.000139143
x1.x1.fib                             0.900163
x1.x1.x1.net2                         0.870607
x1.x1.x1.net4                         0.903563
x1.x1.x1.net1                           1.1428
x1.x1.x1.net5                         0.900295
x1.x1.x1.net3                         0.919158
x1.x1.x6.net2                              1.8
x1.x1.x6.net4                      0.000139213
x1.x1.x6.net1                      0.000139169
x1.x1.x6.net5                              1.8
x1.x1.x6.net3                              1.8
x1.x2.x2.net1                              1.8
x1.net3                               0.452768
x1.net4                            0.000139143
x1.x2.x2.x1.net1                      0.438119
x1.x2.net3                         0.000139156
x1.x2.net1                            0.900017
x1.x2.net2                                 1.8
x1.x2.x3.net1                        0.0344749
x1.x2.x4.net1                         0.448681
x1.x2.x4.net2                        0.0256558
x1.x2.fib                              1.79757
x1.x2.x1.net2                         0.900018
x1.x2.x1.net4                         0.900018
x1.x2.x1.net1                         0.900018
x1.x2.x1.net5                         0.900018
x1.x2.x1.net3                         0.900021
x1.x2.x6.net2                              1.8
x1.x2.x6.net4                      0.000139208
x1.x2.x6.net1                      0.000139182
x1.x2.x6.net5                              1.8
x1.x2.x6.net3                              1.8
x1.x3.x2.net1                              1.8
x1.net5                             0.00104689
x1.net6                                    1.8
x1.x3.x2.x1.net1                   3.16161e-07
x1.x3.net3                         0.000139158
x1.x3.net1                                 1.8
x1.x3.net2                                 1.8
x1.x3.x3.net1                      0.000523358
x1.x3.x4.net1                         0.432455
x1.x3.x4.net2                        0.0251032
x1.x3.fib                              1.79829
x1.x3.x1.net2                      0.000144389
x1.x3.x1.net4                          1.79664
x1.x3.x1.net1                          1.79864
x1.x3.x1.net5                      0.000144403
x1.x3.x1.net3                      0.000139168
x1.x3.x6.net2                              1.8
x1.x3.x6.net4                      0.000139208
x1.x3.x6.net1                      0.000139182
x1.x3.x6.net5                              1.8
x1.x3.x6.net3                              1.8
x1.x4.x2.net1                              1.8
x1.net7                            0.000398387
x1.net8                            0.000139143
x1.x4.x2.x1.net1                      0.100852
x1.x4.net3                         0.000277516
x1.x4.net1                                 1.8
x1.x4.net2                                 1.8
x1.x4.x3.net1                      0.000199181
x1.x4.x4.net1                        0.0683377
x1.x4.x4.net2                      8.22376e-09
x1.x4.fib                                  1.8
x1.x4.x1.net2                      0.000139884
x1.x4.x1.net4                          1.79954
x1.x4.x1.net1                          1.79977
x1.x4.x1.net5                       0.00013991
x1.x4.x1.net3                      0.000139156
x1.x4.x6.net2                      0.000139884
x1.x4.x6.net4                          1.79954
x1.x4.x6.net1                          1.79977
x1.x4.x6.net5                       0.00013991
x1.x4.x6.net3                      0.000139156
x1.x5.x2.net1                              1.8
x1.net9                            0.000398385
x1.net10                                   1.8
x1.x5.x2.x1.net1                   3.12617e-07
x1.x5.net3                         0.000139157
x1.x5.net1                                 1.8
x1.x5.net2                                 1.8
x1.x5.x3.net1                       0.00019918
x1.x5.x4.net1                        0.0533793
x1.x5.x4.net2                        0.0533792
x1.x5.fib                                  1.8
x1.x5.x1.net2                      0.000139884
x1.x5.x1.net4                          1.79954
x1.x5.x1.net1                          1.79977
x1.x5.x1.net5                       0.00013991
x1.x5.x1.net3                      0.000139156
x1.x5.x6.net2                              1.8
x1.x5.x6.net4                      0.000139209
x1.x5.x6.net1                      0.000139182
x1.x5.x6.net5                              1.8
x1.x5.x6.net3                              1.8
x1.x6.x2.net1                              1.8
x1.net11                           0.000398385
x1.net12                                   1.8
x1.x6.x2.x1.net1                   3.12617e-07
x1.x6.net3                         0.000277516
x1.x6.net1                                 1.8
x1.x6.net2                                 1.8
x1.x6.x3.net1                       0.00019918
x1.x6.x4.net1                        0.0679171
x1.x6.x4.net2                      8.20087e-09
x1.x6.fib                                  1.8
x1.x6.x1.net2                      0.000139884
x1.x6.x1.net4                          1.79954
x1.x6.x1.net1                          1.79977
x1.x6.x1.net5                       0.00013991
x1.x6.x1.net3                      0.000139156
x1.x6.x6.net2                      0.000139884
x1.x6.x6.net4                          1.79954
x1.x6.x6.net1                          1.79977
x1.x6.x6.net5                       0.00013991
x1.x6.x6.net3                      0.000139156
x1.x7.x2.net1                              1.8
x1.net13                           0.000398385
x1.net14                                   1.8
x1.x7.x2.x1.net1                   3.12617e-07
x1.x7.net3                         0.000277516
x1.x7.net1                                 1.8
x1.x7.net2                                 1.8
x1.x7.x3.net1                       0.00019918
x1.x7.x4.net1                        0.0679171
x1.x7.x4.net2                      8.20087e-09
x1.x7.fib                                  1.8
x1.x7.x1.net2                      0.000139884
x1.x7.x1.net4                          1.79954
x1.x7.x1.net1                          1.79977
x1.x7.x1.net5                       0.00013991
x1.x7.x1.net3                      0.000139156
x1.x7.x6.net2                      0.000139884
x1.x7.x6.net4                          1.79954
x1.x7.x6.net1                          1.79977
x1.x7.x6.net5                       0.00013991
x1.x7.x6.net3                      0.000139156
x1.x8.x2.net1                              1.8
fout                               0.000398385
x1.x8.x2.x1.net1                   3.12617e-07
x1.x8.net3                         0.000277516
x1.x8.net1                                 1.8
x1.x8.net2                                 1.8
x1.x8.x3.net1                       0.00019918
x1.x8.x4.net1                        0.0679171
x1.x8.x4.net2                      8.20087e-09
x1.x8.fib                                  1.8
x1.x8.x1.net2                      0.000139884
x1.x8.x1.net4                          1.79954
x1.x8.x1.net1                          1.79977
x1.x8.x1.net5                       0.00013991
x1.x8.x1.net3                      0.000139156
x1.x8.x6.net2                      0.000139884
x1.x8.x6.net4                          1.79954
x1.x8.x6.net1                          1.79977
x1.x8.x6.net5                       0.00013991
x1.x8.x6.net3                      0.000139156
v1#branch                                    0
vdd8#branch                                  0
vdd7#branch                                  0
vdd6#branch                                  0
vdd5#branch                                  0
vdd4#branch                                  0
vdd3#branch                                  0
vdd2#branch                                  0
vdd1#branch                                  0
vdd#branch                         -0.00174093


No. of Data Rows : 50008

  Measurements for Transient Analysis

tdiff               =  9.999999e-08 targ=  2.410172e-07 trig=  1.410172e-07
frequency           =  1.00000e+07

Doing analysis at TEMP = 125.000000 and TNOM = 27.000000

Warning: v1: no DC value, transient time 0 value used

  Measurements for Transient Analysis

tdiff               =  9.999999e-08 targ=  2.410172e-07 trig=  1.410172e-07
Netlist line no. 27:
insertnumber: fails.
  s = ".measure tran frequency param=    1.000000057297553e+07   " u="  1.000000057297553e+07  " id=0
frequency           =  1.00000e+07


Total analysis time (seconds) = 342.685

Total elapsed time (seconds) = 408.859 

Total DRAM available = 5052.961 MB.
DRAM currently available =  429.312 MB.
Maximum ngspice program size =  860.258 MB.
Current ngspice program size =  842.730 MB.

Shared ngspice pages =   10.543 MB.
Text (code) pages =    5.375 MB.
Stack = 0 bytes.
Library pages =  840.434 MB.

