
Note: No compatibility mode selected!


Circuit: ** sch_path: /home/mohammed/desktop/ro/extraction.sch

binary raw file "/home/mohammed/Desktop/RO/simulation/extraction.raw"
Doing analysis at TEMP = 27.000000 and TNOM = 27.000000

Warning: v2: no DC value, transient time 0 value used
No. of Data Columns : 10  

Initial Transient Solution
--------------------------

Node                                   Voltage
----                                   -------
out                                    16.4455
in                                         0.8
vdd                                     -0.001
net1                                         0
v2#branch                                    0
v1#branch                                    0


No. of Data Rows : 94

Total analysis time (seconds) = 0.004

Total elapsed time (seconds) = 2.880 

Total DRAM available = 3925.961 MB.
DRAM currently available =  590.309 MB.
Maximum ngspice program size =  110.125 MB.
Current ngspice program size =   92.391 MB.

Shared ngspice pages =   10.320 MB.
Text (code) pages =    5.375 MB.
Stack = 0 bytes.
Library pages =   90.301 MB.

