Warning: m=xx on .subckt line will override multiplier m hierarchy!

Too few parameters for subcircuit type "conventional_pfd" (instance: xxconventional_pfd)
    Simulation interrupted due to error!

Note: No ".plot", ".print", or ".fourier" lines; no simulations run

Note: Compatibility modes selected: hs a


Circuit: ** conventional pfd test bench

option SCALE: Scale is set to 1e-06 for instance and model parameters
