
Note: No compatibility mode selected!


Circuit: ** sch_path: /home/mohamed/simulations/divider_tb.sch

Doing analysis at TEMP = 27.000000 and TNOM = 27.000000

Warning: v1: no DC value, transient time 0 value used
Note: Starting dynamic gmin stepping
Trying gmin =   1.0000E-03 Note: One successful gmin step
Trying gmin =   1.0000E-04 Note: One successful gmin step
Trying gmin =   1.0000E-05 Note: One successful gmin step
Trying gmin =   1.0000E-06 Warning: Further gmin increment
Trying gmin =   5.6234E-06 Warning: Further gmin increment
Trying gmin =   8.6596E-06 Note: One successful gmin step
Trying gmin =   8.0584E-06 Warning: Further gmin increment
Trying gmin =   8.5053E-06 Note: One successful gmin step
Trying gmin =   8.2788E-06 Note: One successful gmin step
Trying gmin =   7.9504E-06 Note: One successful gmin step
Trying gmin =   7.4821E-06 Warning: Further gmin increment
Trying gmin =   7.8307E-06 Note: One successful gmin step
Trying gmin =   7.6544E-06 Note: One successful gmin step
Trying gmin =   7.3974E-06 Warning: Further gmin increment
Trying gmin =   7.5893E-06 Note: One successful gmin step
Trying gmin =   7.4928E-06 Warning: Further gmin increment
Trying gmin =   7.5651E-06 Note: One successful gmin step
Trying gmin =   7.5288E-06 Warning: Further gmin increment
Trying gmin =   7.5560E-06 Note: One successful gmin step
Trying gmin =   7.5424E-06 Note: One successful gmin step
Trying gmin =   7.5220E-06 Note: One successful gmin step
Trying gmin =   7.4916E-06 Note: One successful gmin step
Trying gmin =   7.4462E-06 Note: One successful gmin step
Trying gmin =   7.3787E-06 Note: One successful gmin step
Trying gmin =   7.2784E-06 Note: One successful gmin step
Trying gmin =   7.1306E-06 Note: One successful gmin step
Trying gmin =   6.9146E-06 Note: One successful gmin step
Trying gmin =   6.6027E-06 Note: One successful gmin step
Trying gmin =   6.1610E-06 Note: One successful gmin step
Trying gmin =   5.5533E-06 Note: One successful gmin step
Trying gmin =   4.7522E-06 Note: One successful gmin step
Trying gmin =   3.7620E-06 Warning: Further gmin increment
Trying gmin =   4.4826E-06 Note: One successful gmin step
Trying gmin =   4.1065E-06 Note: One successful gmin step
Trying gmin =   3.6007E-06 Warning: Further gmin increment
Trying gmin =   3.9738E-06 Note: One successful gmin step
Trying gmin =   3.7827E-06 Warning: Further gmin increment
Trying gmin =   3.9251E-06 Note: One successful gmin step
Trying gmin =   3.8532E-06 Note: One successful gmin step
Trying gmin =   3.7479E-06 Warning: Further gmin increment
Trying gmin =   3.8266E-06 Note: One successful gmin step
Trying gmin =   3.7870E-06 Warning: Further gmin increment
Trying gmin =   3.8167E-06 Note: One successful gmin step
Trying gmin =   3.8018E-06 Warning: Further gmin increment
Trying gmin =   3.8130E-06 Warning: Further gmin increment
Trying gmin =   3.8158E-06 Note: One successful gmin step
Trying gmin =   3.8144E-06 Note: One successful gmin step
Trying gmin =   3.8123E-06 Warning: Further gmin increment
Trying gmin =   3.8138E-06 Note: One successful gmin step
Trying gmin =   3.8130E-06 Warning: Further gmin increment
Trying gmin =   3.8136E-06 Note: One successful gmin step
Trying gmin =   3.8133E-06 Note: One successful gmin step
Trying gmin =   3.8129E-06 Note: One successful gmin step
Trying gmin =   3.8122E-06 Note: One successful gmin step
Trying gmin =   3.8112E-06 Note: One successful gmin step
Trying gmin =   3.8098E-06 Note: One successful gmin step
Trying gmin =   3.8075E-06 Note: One successful gmin step
Trying gmin =   3.8042E-06 Note: One successful gmin step
Trying gmin =   3.7992E-06 Note: One successful gmin step
Trying gmin =   3.7917E-06 Note: One successful gmin step
Trying gmin =   3.7805E-06 Note: One successful gmin step
Trying gmin =   3.7637E-06 Note: One successful gmin step
Trying gmin =   3.7387E-06 Note: One successful gmin step
Trying gmin =   3.7015E-06 Note: One successful gmin step
Trying gmin =   3.6463E-06 Note: One successful gmin step
Trying gmin =   3.5652E-06 Note: One successful gmin step
Trying gmin =   3.4468E-06 Note: One successful gmin step
Trying gmin =   3.2766E-06 Note: One successful gmin step
Trying gmin =   3.0369E-06 Note: One successful gmin step
Trying gmin =   2.7099E-06 Note: One successful gmin step
Trying gmin =   2.2841E-06 Note: One successful gmin step
Trying gmin =   1.7676E-06 Note: One successful gmin step
Trying gmin =   1.2033E-06 Warning: Further gmin increment
Trying gmin =   1.6055E-06 Note: One successful gmin step
Trying gmin =   1.3899E-06 Warning: Further gmin increment
Trying gmin =   1.5487E-06 Note: One successful gmin step
Trying gmin =   1.4672E-06 Note: One successful gmin step
Trying gmin =   1.3528E-06 Warning: Further gmin increment
Trying gmin =   1.4377E-06 Note: One successful gmin step
Trying gmin =   1.3946E-06 Warning: Further gmin increment
Trying gmin =   1.4268E-06 Note: One successful gmin step
Trying gmin =   1.4106E-06 Warning: Further gmin increment
Trying gmin =   1.4228E-06 Warning: Further gmin increment
Trying gmin =   1.4258E-06 Note: One successful gmin step
Trying gmin =   1.4243E-06 Note: One successful gmin step
Trying gmin =   1.4220E-06 Warning: Further gmin increment
Trying gmin =   1.4237E-06 Warning: Further gmin increment
Trying gmin =   1.4241E-06 Note: One successful gmin step
Trying gmin =   1.4239E-06 Note: One successful gmin step
Trying gmin =   1.4236E-06 Warning: Further gmin increment
Trying gmin =   1.4238E-06 Note: One successful gmin step
Trying gmin =   1.4237E-06 Note: One successful gmin step
Trying gmin =   1.4235E-06 Warning: Further gmin increment
Trying gmin =   1.4237E-06 Warning: Last gmin step failed
Warning: Dynamic gmin stepping failed
Note: Starting true gmin stepping
Trying gmin =   1.0000E-03 Note: One successful gmin step
Trying gmin =   1.0000E-04 Note: One successful gmin step
Trying gmin =   1.0000E-05 Warning: Further gmin increment
Trying gmin =   5.6234E-05 Note: One successful gmin step
Trying gmin =   4.2170E-05 Note: One successful gmin step
Trying gmin =   3.6517E-05 Note: One successful gmin step
Trying gmin =   2.9427E-05 Note: One successful gmin step
Trying gmin =   2.1288E-05 Note: One successful gmin step
Trying gmin =   1.3097E-05 Note: One successful gmin step
Trying gmin =   6.3209E-06 Note: One successful gmin step
Trying gmin =   2.1192E-06 Note: One successful gmin step
Trying gmin =   4.1139E-07 Note: One successful gmin step
Trying gmin =   4.1139E-08 Note: One successful gmin step
Trying gmin =   4.1139E-09 Note: One successful gmin step
Trying gmin =   4.1139E-10 Note: One successful gmin step
Trying gmin =   4.1139E-11 Note: One successful gmin step
Trying gmin =   4.1139E-12 Warning: Further gmin increment
Trying gmin =   2.3134E-11 Note: One successful gmin step
Trying gmin =   9.7557E-12 Warning: Further gmin increment
Trying gmin =   1.8643E-11 Note: One successful gmin step
Trying gmin =   1.6735E-11 Note: One successful gmin step
Trying gmin =   1.5023E-11 Note: One successful gmin step
Trying gmin =   1.4234E-11 Warning: Further gmin increment
Trying gmin =   1.4822E-11 Warning: Further gmin increment
Trying gmin =   1.4972E-11 Warning: Further gmin increment
Trying gmin =   1.5010E-11 Warning: Further gmin increment
Trying gmin =   1.5020E-11 Warning: Further gmin increment
Trying gmin =   1.5022E-11 Note: One successful gmin step
Trying gmin =   1.5021E-11 Note: One successful gmin step
Trying gmin =   1.5021E-11 Note: One successful gmin step
Trying gmin =   1.5020E-11 Warning: Further gmin increment
Trying gmin =   1.5021E-11 Warning: Last gmin step failed
Note: True gmin stepping completed

Initial Transient Solution
--------------------------

Node                                   Voltage
----                                   -------
vdd                                        1.8
p2                                           0
p4                                           0
p1                                           0
p3                                         1.8
p5                                           0
p6                                           0
p0                                         1.8
p7                                           0
x1.x5.x2.net1                              1.8
x1.net1                            7.50992e-06
x1.net4                            6.06287e-06
x1.x5.x2.x1.net1                     0.0726895
x1.x5.net2                          1.4458e-07
x1.x5.net3                             1.56572
x1.x5.net1                                 1.8
x1.x5.x3.net1                      3.44996e-06
x1.net2                                    1.8
x1.x5.x4.net1                          1.48637
x1.x5.x4.net2                      1.04446e-10
x1.net3                                1.56633
x1.x5.fib                           1.4458e-07
x1.x5.x1.net1                              1.8
x1.x5.x1.net3                              1.8
x1.x5.x1.net2                          1.45514
x1.x5.x1.net4                          1.77251
x1.x5.x1.net5                      1.25857e-10
x1.x5.x6.net1                              1.8
x1.x5.x6.net3                              1.8
x1.x5.x6.net2                          1.45515
x1.x5.x6.net4                          1.77255
x1.x5.x6.net5                       1.2593e-10
x1.x6.x2.net1                      7.36081e-06
x1.net5                                    1.8
x1.net6                                1.56711
x1.x6.x2.x1.net1                   3.97714e-06
x1.x6.net2                                 1.8
x1.x6.net3                         6.04631e-06
x1.x6.net1                                 1.8
x1.x6.x3.net1                      5.96358e-10
x1.x6.x4.net1                        0.0535716
x1.x6.x4.net2                        0.0107138
x1.x6.fib                                  1.8
x1.x6.x1.net1                          1.77254
x1.x6.x1.net3                          1.56594
x1.x6.x1.net2                      1.25907e-10
x1.x6.x1.net4                         0.529311
x1.x6.x1.net5                      3.28549e-06
x1.x6.x6.net1                          1.77254
x1.x6.x6.net3                          1.56573
x1.x6.x6.net2                      1.25883e-10
x1.x6.x6.net4                         0.529451
x1.x6.x6.net5                      3.29473e-06
x1.x7.x2.net1                              1.8
x1.net7                            7.54158e-06
x1.net8                             6.0063e-06
x1.x7.x2.x1.net1                     0.0726908
x1.x7.net2                          1.4458e-07
x1.x7.net3                             1.56542
x1.x7.net1                                 1.8
x1.x7.x3.net1                      3.46405e-06
x1.x7.x4.net1                          1.48638
x1.x7.x4.net2                      1.04382e-10
x1.x7.fib                           1.4458e-07
x1.x7.x1.net1                              1.8
x1.x7.x1.net3                              1.8
x1.x7.x1.net2                          1.45514
x1.x7.x1.net4                          1.77248
x1.x7.x1.net5                      1.25821e-10
x1.x7.x6.net1                              1.8
x1.x7.x6.net3                              1.8
x1.x7.x6.net2                          1.45514
x1.x7.x6.net4                          1.77263
x1.x7.x6.net5                      1.26024e-10
x1.x8.x2.net1                      2.87876e-07
fout                                       1.8
x1.x8.x2.x1.net1                   1.43938e-07
x1.x8.net2                                 1.8
x1.x8.net3                         5.99444e-06
x1.x8.net1                                 1.8
x1.x8.x3.net1                      5.96357e-10
x1.x8.x4.net1                         0.053566
x1.x8.x4.net2                        0.0107131
x1.x8.fib                                  1.8
x1.x8.x1.net1                          1.77258
x1.x8.x1.net3                          1.56654
x1.x8.x1.net2                       1.2598e-10
x1.x8.x1.net4                         0.528891
x1.x8.x1.net5                      3.25648e-06
x1.x8.x6.net1                          1.77258
x1.x8.x6.net3                          1.56641
x1.x8.x6.net2                      1.25964e-10
x1.x8.x6.net4                         0.528987
x1.x8.x6.net5                      3.26312e-06
x1.x1.x2.net1                      7.44429e-06
x1.x1.x2.x1.net1                   4.02349e-06
x1.x1.net2                                 1.8
x1.x1.net3                              1.7679
x1.x1.net1                         5.59408e-07
x1.x1.x3.net1                          1.44902
x1.net9                                    1.8
x1.x1.x4.net1                      3.73896e-07
x1.x1.x4.net2                      1.88384e-07
x1.net10                               1.76789
x1.x1.fib                           1.4458e-07
x1.x1.x1.net1                         0.352135
x1.x1.x1.net3                      1.21141e-07
x1.x1.x1.net2                      6.05706e-08
x1.x1.x1.net4                              1.8
x1.x1.x1.net5                        0.0418074
x1.x1.x6.net1                         0.352135
x1.x1.x6.net3                      1.21141e-07
x1.x1.x6.net2                      6.05706e-08
x1.x1.x6.net4                              1.8
x1.x1.x6.net5                        0.0418106
x1.x2.x2.net1                      4.18141e-07
x1.x2.x2.x1.net1                   2.10976e-07
x1.x2.net2                                 1.8
x1.x2.net3                         5.97282e-06
x1.x2.net1                                 1.8
x1.x2.x3.net1                      5.96357e-10
x1.net11                           7.44986e-06
x1.x2.x4.net1                        0.0535527
x1.x2.x4.net2                        0.0107139
x1.net12                           6.00991e-06
x1.x2.fib                                  1.8
x1.x2.x1.net1                           1.7726
x1.x2.x1.net3                           1.5668
x1.x2.x1.net2                      1.26011e-10
x1.x2.x1.net4                         0.528716
x1.x2.x1.net5                       3.2444e-06
x1.x2.x6.net1                          1.77255
x1.x2.x6.net3                          1.56636
x1.x2.x6.net2                      1.25958e-10
x1.x2.x6.net4                         0.529016
x1.x2.x6.net5                      3.26513e-06
x1.x3.x2.net1                              1.8
x1.x3.x2.x1.net1                     0.0726901
x1.x3.net2                          1.4458e-07
x1.x3.net3                             1.56627
x1.x3.net1                                 1.8
x1.x3.x3.net1                      3.42328e-06
x1.net13                                   1.8
x1.x3.x4.net1                          1.48638
x1.x3.x4.net2                      1.04446e-10
x1.net14                               1.56633
x1.x3.fib                           1.4458e-07
x1.x3.x1.net1                              1.8
x1.x3.x1.net3                              1.8
x1.x3.x1.net2                          1.45514
x1.x3.x1.net4                          1.77257
x1.x3.x1.net5                      1.25923e-10
x1.x3.x6.net1                              1.8
x1.x3.x6.net3                              1.8
x1.x3.x6.net2                          1.45516
x1.x3.x6.net4                          1.77257
x1.x3.x6.net5                       1.2593e-10
x1.x4.x2.net1                      7.44453e-06
x1.x4.x2.x1.net1                   4.02362e-06
x1.x4.net2                                 1.8
x1.x4.net3                                 1.8
x1.x4.net1                           0.0614494
x1.x4.x3.net1                          1.44763
fin                                        0.9
x1.x4.x4.net1                        0.0152704
x1.x4.x4.net2                       0.00761542
opennet                                    1.8
x1.x4.fib                             0.342053
x1.x4.x1.net1                         0.607838
x1.x4.x1.net3                      1.98964e-07
x1.x4.x1.net2                      3.07279e-08
x1.x4.x1.net4                              1.8
x1.x4.x1.net5                         0.267374
x1.x4.x6.net1                         0.607838
x1.x4.x6.net3                      1.98963e-07
x1.x4.x6.net2                      3.07278e-08
x1.x4.x6.net4                              1.8
x1.x4.x6.net5                         0.267376
v1#branch                                    0
vdd8#branch                                  0
vdd7#branch                                  0
vdd6#branch                                  0
vdd5#branch                                  0
vdd4#branch                                  0
vdd3#branch                                  0
vdd2#branch                                  0
vdd1#branch                                  0
vdd#branch                        -0.000131607


No. of Data Rows : 50008

  Measurements for Transient Analysis

tdiff               =  1.000000e-07 targ=  3.781631e-07 trig=  2.781631e-07
f_out               =  1.00000e+07
n                   =  2.47000e+02

ngspice-37 done
