
Note: No compatibility mode selected!


Circuit: ** sch_path: /home/mohamed/simulations/divider_tb.sch

Doing analysis at TEMP = 27.000000 and TNOM = 27.000000

Warning: v1: no DC value, transient time 0 value used
Note: Starting dynamic gmin stepping
Trying gmin =   1.0000E-03 Note: One successful gmin step
Trying gmin =   1.0000E-04 Note: One successful gmin step
Trying gmin =   1.0000E-05 Note: One successful gmin step
Trying gmin =   1.0000E-06 Warning: Further gmin increment
Trying gmin =   5.6234E-06 Warning: Further gmin increment
Trying gmin =   8.6596E-06 Note: One successful gmin step
Trying gmin =   8.0584E-06 Note: One successful gmin step
Trying gmin =   7.4989E-06 Note: One successful gmin step
Trying gmin =   6.7317E-06 Note: One successful gmin step
Trying gmin =   5.7255E-06 Note: One successful gmin step
Trying gmin =   4.4910E-06 Note: One successful gmin step
Trying gmin =   3.1199E-06 Warning: Further gmin increment
Trying gmin =   4.1001E-06 Note: One successful gmin step
Trying gmin =   3.5766E-06 Warning: Further gmin increment
Trying gmin =   3.9624E-06 Note: One successful gmin step
Trying gmin =   3.7646E-06 Note: One successful gmin step
Trying gmin =   3.4861E-06 Note: One successful gmin step
Trying gmin =   3.1066E-06 Note: One successful gmin step
Trying gmin =   2.6134E-06 Note: One successful gmin step
Trying gmin =   2.0164E-06 Note: One successful gmin step
Trying gmin =   1.3666E-06 Note: One successful gmin step
Trying gmin =   9.2618E-07 Warning: Further gmin increment
Trying gmin =   1.2399E-06 Note: One successful gmin step
Trying gmin =   1.0716E-06 Note: One successful gmin step
Trying gmin =   8.6103E-07 Warning: Further gmin increment
Trying gmin =   1.0146E-06 Note: One successful gmin step
Trying gmin =   9.3466E-07 Warning: Further gmin increment
Trying gmin =   9.9399E-07 Warning: Further gmin increment
Trying gmin =   1.0094E-06 Note: One successful gmin step
Trying gmin =   1.0042E-06 Note: One successful gmin step
Trying gmin =   9.9654E-07 Note: One successful gmin step
Trying gmin =   9.8511E-07 Note: One successful gmin step
Trying gmin =   9.6820E-07 Note: One successful gmin step
Trying gmin =   9.4339E-07 Note: One successful gmin step
Trying gmin =   9.0735E-07 Note: One successful gmin step
Trying gmin =   8.5587E-07 Note: One successful gmin step
Trying gmin =   7.8407E-07 Note: One successful gmin step
Trying gmin =   6.8750E-07 Note: One successful gmin step
Trying gmin =   5.6448E-07 Note: One successful gmin step
Trying gmin =   4.1997E-07 Note: One successful gmin step
Trying gmin =   2.6950E-07 Note: One successful gmin step
Trying gmin =   2.1589E-07 Warning: Further gmin increment
Trying gmin =   2.5497E-07 Note: One successful gmin step
Trying gmin =   2.3462E-07 Warning: Further gmin increment
Trying gmin =   2.4972E-07 Note: One successful gmin step
Trying gmin =   2.4205E-07 Note: One successful gmin step
Trying gmin =   2.3462E-07 Note: One successful gmin step
Trying gmin =   2.3099E-07 Note: One successful gmin step
Trying gmin =   2.2565E-07 Note: One successful gmin step
Trying gmin =   2.1787E-07 Note: One successful gmin step
Trying gmin =   2.0669E-07 Note: One successful gmin step
Trying gmin =   1.9100E-07 Note: One successful gmin step
Trying gmin =   1.6967E-07 Note: One successful gmin step
Trying gmin =   1.4206E-07 Note: One successful gmin step
Trying gmin =   1.0883E-07 Note: One successful gmin step
Trying gmin =   7.2973E-08 Note: One successful gmin step
Trying gmin =   4.0067E-08 Note: One successful gmin step
Trying gmin =   1.6302E-08 Note: One successful gmin step
Trying gmin =   4.2305E-09 Note: One successful gmin step
Trying gmin =   5.5928E-10 Warning: Further gmin increment
Trying gmin =   2.5509E-09 Warning: Further gmin increment
Trying gmin =   3.7279E-09 Note: One successful gmin step
Trying gmin =   3.0838E-09 Note: One successful gmin step
Trying gmin =   2.3201E-09 Note: One successful gmin step
Trying gmin =   2.0124E-09 Note: One successful gmin step
Trying gmin =   1.6257E-09 Note: One successful gmin step
Trying gmin =   1.1804E-09 Note: One successful gmin step
Trying gmin =   7.3027E-10 Note: One successful gmin step
Trying gmin =   3.5537E-10 Note: One successful gmin step
Trying gmin =   1.2064E-10 Note: One successful gmin step
Trying gmin =   2.3861E-11 Note: One successful gmin step
Trying gmin =   2.3861E-12 Warning: Further gmin increment
Trying gmin =   1.3418E-11 Warning: Further gmin increment
Trying gmin =   2.0663E-11 Note: One successful gmin step
Trying gmin =   1.6651E-11 Warning: Further gmin increment
Trying gmin =   1.9577E-11 Note: One successful gmin step
Trying gmin =   1.8055E-11 Warning: Further gmin increment
Trying gmin =   1.9185E-11 Note: One successful gmin step
Trying gmin =   1.8800E-11 Warning: Further gmin increment
Trying gmin =   1.9088E-11 Note: One successful gmin step
Trying gmin =   1.9040E-11 Note: One successful gmin step
Trying gmin =   1.8968E-11 Note: One successful gmin step
Trying gmin =   1.8932E-11 Note: One successful gmin step
Trying gmin =   1.8914E-11 Note: One successful gmin step
Trying gmin =   1.8887E-11 Note: One successful gmin step
Trying gmin =   1.8847E-11 Note: One successful gmin step
Trying gmin =   1.8786E-11 Note: One successful gmin step
Trying gmin =   1.8756E-11 Note: One successful gmin step
Trying gmin =   1.8741E-11 Warning: Further gmin increment
Trying gmin =   1.8753E-11 Warning: Further gmin increment
Trying gmin =   1.8755E-11 Warning: Further gmin increment
Trying gmin =   1.8756E-11 Warning: Last gmin step failed
Warning: Dynamic gmin stepping failed
Note: Starting true gmin stepping
Trying gmin =   1.0000E-03 Note: One successful gmin step
Trying gmin =   1.0000E-04 Note: One successful gmin step
Trying gmin =   1.0000E-05 Warning: Further gmin increment
Trying gmin =   5.6234E-05 Note: One successful gmin step
Trying gmin =   3.1623E-05 Note: One successful gmin step
Trying gmin =   1.3335E-05 Note: One successful gmin step
Trying gmin =   3.6517E-06 Note: One successful gmin step
Trying gmin =   5.2330E-07 Note: One successful gmin step
Trying gmin =   5.2330E-08 Note: One successful gmin step
Trying gmin =   5.2330E-09 Note: One successful gmin step
Trying gmin =   5.2330E-10 Warning: Further gmin increment
Trying gmin =   2.9427E-09 Note: One successful gmin step
Trying gmin =   1.2409E-09 Warning: Further gmin increment
Trying gmin =   2.3714E-09 Note: One successful gmin step
Trying gmin =   1.7154E-09 Note: One successful gmin step
Trying gmin =   1.0554E-09 Warning: Further gmin increment
Trying gmin =   1.5193E-09 Note: One successful gmin step
Trying gmin =   1.2663E-09 Warning: Further gmin increment
Trying gmin =   1.4517E-09 Warning: Further gmin increment
Trying gmin =   1.5021E-09 Note: One successful gmin step
Trying gmin =   1.4767E-09 Note: One successful gmin step
Trying gmin =   1.4393E-09 Warning: Further gmin increment
Trying gmin =   1.4672E-09 Note: One successful gmin step
Trying gmin =   1.4532E-09 Warning: Further gmin increment
Trying gmin =   1.4637E-09 Warning: Further gmin increment
Trying gmin =   1.4664E-09 Note: One successful gmin step
Trying gmin =   1.4650E-09 Note: One successful gmin step
Trying gmin =   1.4631E-09 Warning: Further gmin increment
Trying gmin =   1.4645E-09 Note: One successful gmin step
Trying gmin =   1.4638E-09 Warning: Further gmin increment
Trying gmin =   1.4644E-09 Warning: Further gmin increment
Trying gmin =   1.4645E-09 Note: One successful gmin step
Trying gmin =   1.4644E-09 Note: One successful gmin step
Trying gmin =   1.4644E-09 Note: One successful gmin step
Trying gmin =   1.4642E-09 Note: One successful gmin step
Trying gmin =   1.4641E-09 Warning: Further gmin increment
Trying gmin =   1.4642E-09 Warning: Last gmin step failed
Warning: True gmin stepping failed
Note: Starting source stepping
Supplies reduced to   0.0000% 
Trying gmin =   1.0000E-02 Note: One successful gmin step
Trying gmin =   1.0000E-03 Note: One successful gmin step
Trying gmin =   1.0000E-04 Note: One successful gmin step
Trying gmin =   1.0000E-05 Note: One successful gmin step
Trying gmin =   1.0000E-06 Note: One successful gmin step
Trying gmin =   1.0000E-07 Note: One successful gmin step
Trying gmin =   1.0000E-08 Note: One successful gmin step
Trying gmin =   1.0000E-09 Note: One successful gmin step
Trying gmin =   1.0000E-10 Note: One successful gmin step
Trying gmin =   1.0000E-11 Note: One successful gmin step
Trying gmin =   1.0000E-12 Note: One successful gmin step
Note: One successful source step
Supplies reduced to   0.1000% Note: One successful source step
Supplies reduced to   0.2000% Note: One successful source step
Supplies reduced to   0.3500% Note: One successful source step
Supplies reduced to   0.5750% Note: One successful source step
Supplies reduced to   0.9125% Note: One successful source step
Supplies reduced to   1.4188% Note: One successful source step
Supplies reduced to   2.1781% Note: One successful source step
Supplies reduced to   3.3172% Note: One successful source step
Supplies reduced to   5.0258% Note: One successful source step
Supplies reduced to   7.5887% Note: One successful source step
Supplies reduced to  11.4330% Supplies reduced to   7.5887% Note: One successful source step
Supplies reduced to   8.1653% Note: One successful source step
Supplies reduced to   9.0303% Note: One successful source step
Supplies reduced to  10.3278% Note: One successful source step
Supplies reduced to  12.2740% Supplies reduced to  10.3278% Note: One successful source step
Supplies reduced to  10.5224% Supplies reduced to  10.3278% Note: One successful source step
Supplies reduced to  10.3472% Note: One successful source step
Supplies reduced to  10.3764% Note: One successful source step
Supplies reduced to  10.4202% Note: One successful source step
Supplies reduced to  10.4859% Note: One successful source step
Supplies reduced to  10.5516% Note: One successful source step
Supplies reduced to  10.6501% Note: One successful source step
Supplies reduced to  10.6994% Supplies reduced to  10.6501% Note: One successful source step
Supplies reduced to  10.6526% Note: One successful source step
Supplies reduced to  10.6538% Note: One successful source step
Supplies reduced to  10.6556% Supplies reduced to  10.6538% Note: One successful source step
Supplies reduced to  10.6539% Warning: source stepping failed
Note: Transient op started
Note: Transient op finished successfully

Initial Transient Solution
--------------------------

Node                                   Voltage
----                                   -------
vdd                                        1.8
p2                                           0
p4                                         1.8
p1                                           0
p3                                           0
p5                                           0
p6                                           0
p0                                           0
p7                                           0
x1.x5.x2.net1                          1.79999
x1.net1                                1.80014
x1.net4                             -0.0938439
x1.x5.x2.x1.net1                       1.34116
x1.x5.net2                        -0.000209945
x1.x5.net3                          -0.0866945
x1.x5.net1                             1.80016
x1.x5.x3.net1                     -0.000360377
x1.net2                                1.80118
x1.x5.x4.net1                          1.31987
x1.x5.x4.net2                          1.28942
x1.net3                             -0.0326868
x1.x5.fib                            0.0185481
x1.x5.x1.net1                         0.405258
x1.x5.x1.net3                       0.00232679
x1.x5.x1.net2                      0.000276893
x1.x5.x1.net4                          1.78474
x1.x5.x1.net5                        -0.221721
x1.x5.x6.net1                          1.80116
x1.x5.x6.net3                          1.80737
x1.x5.x6.net2                          1.33146
x1.x5.x6.net4                          0.52623
x1.x5.x6.net5                      -0.00171974
x1.x6.x2.net1                      3.38401e-06
x1.net5                                    1.8
x1.net6                                 1.8321
x1.x6.x2.x1.net1                  -1.01935e-05
x1.x6.net2                                 1.8
x1.x6.net3                           -0.188574
x1.x6.net1                             1.80002
x1.x6.x3.net1                     -1.69981e-06
x1.x6.x4.net1                          1.33301
x1.x6.x4.net2                        -0.180477
x1.x6.fib                          3.96408e-05
x1.x6.x1.net1                         0.404539
x1.x6.x1.net3                      5.63999e-05
x1.x6.x1.net2                     -1.88552e-05
x1.x6.x1.net4                          1.80002
x1.x6.x1.net5                        -0.185531
x1.x6.x6.net1                          0.40454
x1.x6.x6.net3                      5.56401e-05
x1.x6.x6.net2                      -1.7512e-05
x1.x6.x6.net4                          1.80002
x1.x6.x6.net5                        -0.141106
x1.x7.x2.net1                              1.8
x1.net7                            1.91179e-07
x1.net8                            3.88779e-07
x1.x7.x2.x1.net1                     -0.143751
x1.x7.net2                         3.65274e-07
x1.x7.net3                              1.8487
x1.x7.net1                                 1.8
x1.x7.x3.net1                      5.44595e-10
x1.x7.x4.net1                          1.36097
x1.x7.x4.net2                     -3.39827e-07
x1.x7.fib                          2.14104e-07
x1.x7.x1.net1                              1.8
x1.x7.x1.net3                              1.8
x1.x7.x1.net2                          1.32851
x1.x7.x1.net4                          1.94032
x1.x7.x1.net5                      3.34008e-06
x1.x7.x6.net1                              1.8
x1.x7.x6.net3                              1.8
x1.x7.x6.net2                           1.3285
x1.x7.x6.net4                           1.9387
x1.x7.x6.net5                       3.1825e-06
x1.x8.x2.net1                       1.1172e-06
fout                                       1.8
x1.x8.x2.x1.net1                  -1.44251e-06
x1.x8.net2                                 1.8
x1.x8.net3                         6.22073e-07
x1.x8.net1                                 1.8
x1.x8.x3.net1                     -3.00033e-08
x1.x8.x4.net1                          1.03502
x1.x8.x4.net2                       -0.0854975
x1.x8.fib                                  1.8
x1.x8.x1.net1                          1.92058
x1.x8.x1.net3                          1.89482
x1.x8.x1.net2                      4.58074e-08
x1.x8.x1.net4                         0.395978
x1.x8.x1.net5                     -1.05944e-06
x1.x8.x6.net1                          1.93342
x1.x8.x6.net3                          1.89925
x1.x8.x6.net2                     -6.71322e-08
x1.x8.x6.net4                         0.396624
x1.x8.x6.net5                     -1.96908e-08
x1.x1.x2.net1                          1.80015
x1.x1.x2.x1.net1                       1.34175
x1.x1.net2                          0.00104119
x1.x1.net3                          0.00350089
x1.x1.net1                             1.79913
x1.x1.x3.net1                       -0.0032836
x1.net9                           -0.000310559
x1.x1.x4.net1                         0.967546
x1.x1.x4.net2                        -0.171387
x1.net10                          -0.000805863
x1.x1.fib                              1.79847
x1.x1.x1.net1                          1.96802
x1.x1.x1.net3                          1.99189
x1.x1.x1.net2                      -0.00734466
x1.x1.x1.net4                         0.397476
x1.x1.x1.net5                      -0.00430894
x1.x1.x6.net1                          1.80319
x1.x1.x6.net3                          1.98441
x1.x1.x6.net2                         0.940156
x1.x1.x6.net4                         0.354758
x1.x1.x6.net5                     -0.000194237
x1.x2.x2.net1                          1.79905
x1.x2.x2.x1.net1                      0.950492
x1.x2.net2                          -0.0013084
x1.x2.net3                             1.80366
x1.x2.net1                             1.80084
x1.x2.x3.net1                        0.0011107
x1.net11                              0.000292
x1.x2.x4.net1                          1.00697
x1.x2.x4.net2                        0.0739944
x1.net12                           0.000997528
x1.x2.fib                              1.80242
x1.x2.x1.net1                          1.79522
x1.x2.x1.net3                         -0.28257
x1.x2.x1.net2                        -0.265662
x1.x2.x1.net4                           1.7916
x1.x2.x1.net5                          1.33201
x1.x2.x6.net1                          1.79778
x1.x2.x6.net3                          1.95575
x1.x2.x6.net2                         0.920832
x1.x2.x6.net4                         0.354313
x1.x2.x6.net5                     -3.12359e-05
x1.x3.x2.net1                          1.80103
x1.x3.x2.x1.net1                      0.929426
x1.x3.net2                         0.000328065
x1.x3.net3                             1.79994
x1.x3.net1                             1.80006
x1.x3.x3.net1                      0.000580457
x1.net13                                0.7494
x1.x3.x4.net1                         0.575641
x1.x3.x4.net2                        -0.106814
x1.net14                           4.27249e-05
x1.x3.fib                              1.71803
x1.x3.x1.net1                          1.80141
x1.x3.x1.net3                         0.444564
x1.x3.x1.net2                         0.338643
x1.x3.x1.net4                          1.79979
x1.x3.x1.net5                          1.11459
x1.x3.x6.net1                          1.80016
x1.x3.x6.net3                          1.82124
x1.x3.x6.net2                         0.461444
x1.x3.x6.net4                          0.95672
x1.x3.x6.net5                       7.4547e-05
x1.x4.x2.net1                          1.80001
x1.x4.x2.x1.net1                      0.481614
x1.x4.net2                         8.28691e-07
x1.x4.net3                            0.821121
x1.x4.net1                                 1.8
x1.x4.x3.net1                        0.0115129
fin                                        0.9
x1.x4.x4.net1                         0.655821
x1.x4.x4.net2                     -8.29054e-08
opennet                                1.64958
x1.x4.fib                             0.342039
x1.x4.x1.net1                          1.77741
x1.x4.x1.net3                          1.76875
x1.x4.x1.net2                           0.1928
x1.x4.x1.net4                          1.21085
x1.x4.x1.net5                      9.00328e-07
x1.x4.x6.net1                              1.8
x1.x4.x6.net3                              1.8
x1.x4.x6.net2                         0.572575
x1.x4.x6.net4                          1.64961
x1.x4.x6.net5                      1.00433e-06
v1#branch                          -1.0354e-08
vdd8#branch                         3.6028e-09
vdd7#branch                        -6.6115e-10
vdd6#branch                        9.33858e-09
vdd5#branch                        1.11598e-09
vdd4#branch                       -1.61814e-06
vdd3#branch                       -5.65525e-08
vdd2#branch                       -2.67426e-07
vdd1#branch                        2.07083e-06
vdd#branch                        -0.000185809


No. of Data Rows : 50008

  Measurements for Transient Analysis

tdiff               =  1.000000e-07 targ=  3.774975e-07 trig=  2.774975e-07
f_out               =  1.00000e+07
n                   =  2.40000e+02

ngspice-37 done
