
Note: No compatibility mode selected!


Circuit: ** sch_path: /home/mohamed/simulations/divider_tb.sch

Doing analysis at TEMP = 27.000000 and TNOM = 27.000000

Warning: v1: no DC value, transient time 0 value used
Note: Starting dynamic gmin stepping
Trying gmin =   1.0000E-03 Note: One successful gmin step
Trying gmin =   1.0000E-04 Note: One successful gmin step
Trying gmin =   1.0000E-05 Note: One successful gmin step
Trying gmin =   3.1623E-06 Warning: Further gmin increment
Trying gmin =   7.4989E-06 Warning: Further gmin increment
Trying gmin =   9.3057E-06 Warning: Further gmin increment
Trying gmin =   9.8217E-06 Note: One successful gmin step
Trying gmin =   9.5602E-06 Warning: Further gmin increment
Trying gmin =   9.7557E-06 Note: One successful gmin step
Trying gmin =   9.6575E-06 Warning: Further gmin increment
Trying gmin =   9.7310E-06 Note: One successful gmin step
Trying gmin =   9.6942E-06 Note: One successful gmin step
Trying gmin =   9.6392E-06 Warning: Further gmin increment
Trying gmin =   9.6804E-06 Note: One successful gmin step
Trying gmin =   9.6598E-06 Warning: Further gmin increment
Trying gmin =   9.6752E-06 Note: One successful gmin step
Trying gmin =   9.6675E-06 Note: One successful gmin step
Trying gmin =   9.6559E-06 Warning: Further gmin increment
Trying gmin =   9.6646E-06 Note: One successful gmin step
Trying gmin =   9.6602E-06 Warning: Further gmin increment
Trying gmin =   9.6635E-06 Note: One successful gmin step
Trying gmin =   9.6619E-06 Note: One successful gmin step
Trying gmin =   9.6594E-06 Warning: Further gmin increment
Trying gmin =   9.6613E-06 Note: One successful gmin step
Trying gmin =   9.6603E-06 Warning: Further gmin increment
Trying gmin =   9.6610E-06 Note: One successful gmin step
Trying gmin =   9.6607E-06 Note: One successful gmin step
Trying gmin =   9.6602E-06 Warning: Further gmin increment
Trying gmin =   9.6606E-06 Warning: Last gmin step failed
Warning: Dynamic gmin stepping failed
Note: Starting true gmin stepping
Trying gmin =   1.0000E-03 Note: One successful gmin step
Trying gmin =   1.0000E-04 Note: One successful gmin step
Trying gmin =   3.1623E-05 Warning: Further gmin increment
Trying gmin =   7.4989E-05 Note: One successful gmin step
Trying gmin =   5.6234E-05 Note: One successful gmin step
Trying gmin =   4.2170E-05 Note: One successful gmin step
Trying gmin =   3.6517E-05 Note: One successful gmin step
Trying gmin =   2.9427E-05 Note: One successful gmin step
Trying gmin =   2.1288E-05 Note: One successful gmin step
Trying gmin =   1.3097E-05 Note: One successful gmin step
Trying gmin =   6.3209E-06 Note: One successful gmin step
Trying gmin =   2.1192E-06 Note: One successful gmin step
Trying gmin =   4.1139E-07 Note: One successful gmin step
Trying gmin =   4.1139E-08 Note: One successful gmin step
Trying gmin =   4.1139E-09 Note: One successful gmin step
Trying gmin =   4.1139E-10 Note: One successful gmin step
Trying gmin =   4.1139E-11 Note: One successful gmin step
Trying gmin =   4.1139E-12 Warning: Further gmin increment
Trying gmin =   2.3134E-11 Note: One successful gmin step
Trying gmin =   9.7557E-12 Warning: Further gmin increment
Trying gmin =   1.8643E-11 Note: One successful gmin step
Trying gmin =   1.3486E-11 Warning: Further gmin increment
Trying gmin =   1.7193E-11 Note: One successful gmin step
Trying gmin =   1.5227E-11 Note: One successful gmin step
Trying gmin =   1.3486E-11 Note: One successful gmin step
Trying gmin =   1.2692E-11 Warning: Further gmin increment
Trying gmin =   1.3283E-11 Note: One successful gmin step
Trying gmin =   1.2984E-11 Note: One successful gmin step
Trying gmin =   1.2837E-11 Warning: Further gmin increment
Trying gmin =   1.2947E-11 Note: One successful gmin step
Trying gmin =   1.2929E-11 Note: One successful gmin step
Trying gmin =   1.2919E-11 Note: One successful gmin step
Trying gmin =   1.2915E-11 Warning: Further gmin increment
Trying gmin =   1.2918E-11 Note: One successful gmin step
Trying gmin =   1.2918E-11 Note: One successful gmin step
Trying gmin =   1.2917E-11 Warning: Further gmin increment
Trying gmin =   1.2917E-11 Note: One successful gmin step
Trying gmin =   1.2917E-11 Note: One successful gmin step
Trying gmin =   1.2916E-11 Note: One successful gmin step
Trying gmin =   1.2915E-11 Note: One successful gmin step
Trying gmin =   1.2915E-11 Note: One successful gmin step
Trying gmin =   1.2914E-11 Note: One successful gmin step
Trying gmin =   1.2914E-11 Warning: Further gmin increment
Trying gmin =   1.2914E-11 Warning: Last gmin step failed
Note: True gmin stepping completed

Initial Transient Solution
--------------------------

Node                                   Voltage
----                                   -------
vdd                                        1.8
p2                                         1.8
p4                                           0
p1                                         1.8
p3                                         1.8
p5                                           0
p6                                           0
p0                                         1.8
p7                                           0
x1.x5.x2.net1                              1.8
x1.net1                            7.45754e-06
x1.net4                            6.10049e-06
x1.x5.x2.x1.net1                     0.0726928
x1.x5.net2                          1.4458e-07
x1.x5.net3                             1.56621
x1.x5.net1                                 1.8
x1.x5.x3.net1                      3.42668e-06
x1.net2                                    1.8
x1.x5.x4.net1                           1.4864
x1.x5.x4.net2                      1.04441e-10
x1.net3                                1.56642
x1.x5.fib                           1.4458e-07
x1.x5.x1.net1                              1.8
x1.x5.x1.net3                              1.8
x1.x5.x1.net2                          1.45514
x1.x5.x1.net4                          1.77256
x1.x5.x1.net5                      1.25915e-10
x1.x5.x6.net1                              1.8
x1.x5.x6.net3                              1.8
x1.x5.x6.net2                          1.45514
x1.x5.x6.net4                          1.77256
x1.x5.x6.net5                      1.25941e-10
x1.x6.x2.net1                      7.39184e-06
x1.net5                                    1.8
x1.net6                                1.56682
x1.x6.x2.x1.net1                   3.99437e-06
x1.x6.net2                                 1.8
x1.x6.net3                         6.09366e-06
x1.x6.net1                                 1.8
x1.x6.x3.net1                      5.96358e-10
x1.x6.x4.net1                        0.0535502
x1.x6.x4.net2                        0.0107128
x1.x6.fib                                  1.8
x1.x6.x1.net1                           1.7725
x1.x6.x1.net3                          1.56538
x1.x6.x1.net2                      1.25841e-10
x1.x6.x1.net4                         0.529692
x1.x6.x1.net5                      3.31197e-06
x1.x6.x6.net1                           1.7725
x1.x6.x6.net3                          1.56531
x1.x6.x6.net2                      1.25831e-10
x1.x6.x6.net4                         0.529746
x1.x6.x6.net5                      3.31579e-06
x1.x7.x2.net1                              1.8
x1.net7                            7.45156e-06
x1.net8                            6.03049e-06
x1.x7.x2.x1.net1                       0.07269
x1.x7.net2                          1.4458e-07
x1.x7.net3                             1.56626
x1.x7.net1                                 1.8
x1.x7.x3.net1                      3.42402e-06
x1.x7.x4.net1                           1.4864
x1.x7.x4.net2                      1.04408e-10
x1.x7.fib                           1.4458e-07
x1.x7.x1.net1                              1.8
x1.x7.x1.net3                              1.8
x1.x7.x1.net2                          1.45514
x1.x7.x1.net4                          1.77257
x1.x7.x1.net5                      1.25922e-10
x1.x7.x6.net1                              1.8
x1.x7.x6.net3                              1.8
x1.x7.x6.net2                          1.45514
x1.x7.x6.net4                          1.77262
x1.x7.x6.net5                      1.25989e-10
x1.x8.x2.net1                      2.87876e-07
fout                                       1.8
x1.x8.x2.x1.net1                   1.43938e-07
x1.x8.net2                                 1.8
x1.x8.net3                          5.9785e-06
x1.x8.net1                                 1.8
x1.x8.x3.net1                      5.96357e-10
x1.x8.x4.net1                        0.0535474
x1.x8.x4.net2                        0.0107123
x1.x8.fib                                  1.8
x1.x8.x1.net1                           1.7726
x1.x8.x1.net3                          1.56673
x1.x8.x1.net2                      1.26003e-10
x1.x8.x1.net4                         0.528761
x1.x8.x1.net5                      3.24757e-06
x1.x8.x6.net1                          1.77254
x1.x8.x6.net3                          1.56612
x1.x8.x6.net2                      1.25929e-10
x1.x8.x6.net4                         0.529186
x1.x8.x6.net5                      3.27663e-06
x1.x1.x2.net1                      7.43438e-06
x1.x1.x2.x1.net1                   4.01799e-06
x1.x1.net2                                 1.8
x1.x1.net3                              1.7678
x1.x1.net1                         5.59972e-07
x1.x1.x3.net1                          1.44893
x1.net9                                    1.8
x1.x1.x4.net1                      3.74277e-07
x1.x1.x4.net2                      1.88581e-07
x1.net10                               1.76778
x1.x1.fib                           1.4458e-07
x1.x1.x1.net1                         0.352135
x1.x1.x1.net3                      1.21141e-07
x1.x1.x1.net2                      6.05707e-08
x1.x1.x1.net4                              1.8
x1.x1.x1.net5                        0.0418059
x1.x1.x6.net1                         0.352135
x1.x1.x6.net3                      1.21141e-07
x1.x1.x6.net2                      6.05707e-08
x1.x1.x6.net4                              1.8
x1.x1.x6.net5                        0.0418059
x1.x2.x2.net1                      4.18712e-07
x1.x2.x2.x1.net1                   2.11271e-07
x1.x2.net2                                 1.8
x1.x2.net3                             1.76783
x1.x2.net1                         5.59945e-07
x1.x2.x3.net1                          1.44895
x1.net11                                   1.8
x1.x2.x4.net1                      3.74258e-07
x1.x2.x4.net2                      1.88571e-07
x1.net12                               1.76779
x1.x2.fib                           1.4458e-07
x1.x2.x1.net1                         0.352135
x1.x2.x1.net3                      1.21141e-07
x1.x2.x1.net2                      6.05707e-08
x1.x2.x1.net4                              1.8
x1.x2.x1.net5                        0.0418031
x1.x2.x6.net1                         0.352135
x1.x2.x6.net3                      1.21141e-07
x1.x2.x6.net2                      6.05707e-08
x1.x2.x6.net4                              1.8
x1.x2.x6.net5                        0.0418084
x1.x3.x2.net1                      4.18685e-07
x1.x3.x2.x1.net1                   2.11257e-07
x1.x3.net2                                 1.8
x1.x3.net3                             1.76791
x1.x3.net1                         5.59408e-07
x1.x3.x3.net1                          1.44903
x1.net13                                   1.8
x1.x3.x4.net1                      3.73896e-07
x1.x3.x4.net2                      1.88384e-07
x1.net14                               1.76789
x1.x3.fib                           1.4458e-07
x1.x3.x1.net1                         0.352135
x1.x3.x1.net3                      1.21141e-07
x1.x3.x1.net2                      6.05707e-08
x1.x3.x1.net4                              1.8
x1.x3.x1.net5                        0.0418086
x1.x3.x6.net1                         0.352135
x1.x3.x6.net3                      1.21141e-07
x1.x3.x6.net2                      6.05706e-08
x1.x3.x6.net4                              1.8
x1.x3.x6.net5                        0.0418077
x1.x4.x2.net1                      4.18141e-07
x1.x4.x2.x1.net1                   2.10976e-07
x1.x4.net2                                 1.8
x1.x4.net3                                 1.8
x1.x4.net1                           0.0614494
x1.x4.x3.net1                          1.44764
fin                                        0.9
x1.x4.x4.net1                        0.0152704
x1.x4.x4.net2                       0.00761542
opennet                                    1.8
x1.x4.fib                             0.342053
x1.x4.x1.net1                         0.607838
x1.x4.x1.net3                      1.98963e-07
x1.x4.x1.net2                      3.07277e-08
x1.x4.x1.net4                              1.8
x1.x4.x1.net5                         0.267373
x1.x4.x6.net1                         0.607838
x1.x4.x6.net3                      1.98964e-07
x1.x4.x6.net2                       3.0728e-08
x1.x4.x6.net4                              1.8
x1.x4.x6.net5                         0.267371
v1#branch                                    0
vdd8#branch                                  0
vdd7#branch                                  0
vdd6#branch                                  0
vdd5#branch                                  0
vdd4#branch                                  0
vdd3#branch                                  0
vdd2#branch                                  0
vdd1#branch                                  0
vdd#branch                        -0.000131553


No. of Data Rows : 50008

  Measurements for Transient Analysis

tdiff               =  1.000000e-07 targ=  3.738606e-07 trig=  2.738606e-07
f_out               =  1.00000e+07
n                   =  2.41000e+02

ngspice-37 done
