
Note: No compatibility mode selected!


Circuit: ** sch_path: /home/mohamed/simulations/divider_tb.sch

Doing analysis at TEMP = 27.000000 and TNOM = 27.000000

Warning: v1: no DC value, transient time 0 value used
Note: Starting dynamic gmin stepping
Trying gmin =   1.0000E-03 Note: One successful gmin step
Trying gmin =   1.0000E-04 Note: One successful gmin step
Trying gmin =   1.0000E-05 Note: One successful gmin step
Trying gmin =   1.0000E-06 Warning: Further gmin increment
Trying gmin =   5.6234E-06 Warning: Further gmin increment
Trying gmin =   8.6596E-06 Note: One successful gmin step
Trying gmin =   8.0584E-06 Note: One successful gmin step
Trying gmin =   7.4989E-06 Note: One successful gmin step
Trying gmin =   6.7317E-06 Note: One successful gmin step
Trying gmin =   5.7255E-06 Note: One successful gmin step
Trying gmin =   4.4910E-06 Note: One successful gmin step
Trying gmin =   3.1199E-06 Warning: Further gmin increment
Trying gmin =   4.1001E-06 Note: One successful gmin step
Trying gmin =   3.5766E-06 Warning: Further gmin increment
Trying gmin =   3.9624E-06 Note: One successful gmin step
Trying gmin =   3.7646E-06 Note: One successful gmin step
Trying gmin =   3.4861E-06 Note: One successful gmin step
Trying gmin =   3.1066E-06 Note: One successful gmin step
Trying gmin =   2.6134E-06 Note: One successful gmin step
Trying gmin =   2.0164E-06 Note: One successful gmin step
Trying gmin =   1.3666E-06 Warning: Further gmin increment
Trying gmin =   1.8295E-06 Warning: Further gmin increment
Trying gmin =   1.9680E-06 Note: One successful gmin step
Trying gmin =   1.8975E-06 Note: One successful gmin step
Trying gmin =   1.7965E-06 Warning: Further gmin increment
Trying gmin =   1.8717E-06 Warning: Further gmin increment
Trying gmin =   1.8910E-06 Note: One successful gmin step
Trying gmin =   1.8813E-06 Note: One successful gmin step
Trying gmin =   1.8669E-06 Warning: Further gmin increment
Trying gmin =   1.8777E-06 Note: One successful gmin step
Trying gmin =   1.8723E-06 Warning: Further gmin increment
Trying gmin =   1.8764E-06 Note: One successful gmin step
Trying gmin =   1.8743E-06 Warning: Further gmin increment
Trying gmin =   1.8759E-06 Warning: Further gmin increment
Trying gmin =   1.8762E-06 Warning: Further gmin increment
Trying gmin =   1.8763E-06 Note: One successful gmin step
Trying gmin =   1.8763E-06 Warning: Last gmin step failed
Warning: Dynamic gmin stepping failed
Note: Starting true gmin stepping
Trying gmin =   1.0000E-03 Note: One successful gmin step
Trying gmin =   1.0000E-04 Note: One successful gmin step
Trying gmin =   1.0000E-05 Warning: Further gmin increment
Trying gmin =   5.6234E-05 Note: One successful gmin step
Trying gmin =   3.1623E-05 Note: One successful gmin step
Trying gmin =   1.3335E-05 Note: One successful gmin step
Trying gmin =   3.6517E-06 Note: One successful gmin step
Trying gmin =   5.2330E-07 Note: One successful gmin step
Trying gmin =   5.2330E-08 Note: One successful gmin step
Trying gmin =   5.2330E-09 Note: One successful gmin step
Trying gmin =   5.2330E-10 Warning: Further gmin increment
Trying gmin =   2.9427E-09 Note: One successful gmin step
Trying gmin =   1.2409E-09 Warning: Further gmin increment
Trying gmin =   2.3714E-09 Note: One successful gmin step
Trying gmin =   1.7154E-09 Note: One successful gmin step
Trying gmin =   1.0554E-09 Warning: Further gmin increment
Trying gmin =   1.5193E-09 Note: One successful gmin step
Trying gmin =   1.2663E-09 Warning: Further gmin increment
Trying gmin =   1.4517E-09 Warning: Further gmin increment
Trying gmin =   1.5021E-09 Note: One successful gmin step
Trying gmin =   1.4767E-09 Note: One successful gmin step
Trying gmin =   1.4393E-09 Warning: Further gmin increment
Trying gmin =   1.4672E-09 Note: One successful gmin step
Trying gmin =   1.4532E-09 Warning: Further gmin increment
Trying gmin =   1.4637E-09 Warning: Further gmin increment
Trying gmin =   1.4664E-09 Note: One successful gmin step
Trying gmin =   1.4650E-09 Note: One successful gmin step
Trying gmin =   1.4637E-09 Warning: Further gmin increment
Trying gmin =   1.4647E-09 Note: One successful gmin step
Trying gmin =   1.4642E-09 Warning: Further gmin increment
Trying gmin =   1.4646E-09 Note: One successful gmin step
Trying gmin =   1.4644E-09 Note: One successful gmin step
Trying gmin =   1.4641E-09 Warning: Further gmin increment
Trying gmin =   1.4643E-09 Note: One successful gmin step
Trying gmin =   1.4642E-09 Note: One successful gmin step
Trying gmin =   1.4641E-09 Warning: Further gmin increment
Trying gmin =   1.4642E-09 Note: One successful gmin step
Trying gmin =   1.4641E-09 Note: One successful gmin step
Trying gmin =   1.4641E-09 Note: One successful gmin step
Trying gmin =   1.4640E-09 Warning: Further gmin increment
Trying gmin =   1.4640E-09 Warning: Last gmin step failed
Warning: True gmin stepping failed
Note: Starting source stepping
Supplies reduced to   0.0000% 
Trying gmin =   1.0000E-02 Note: One successful gmin step
Trying gmin =   1.0000E-03 Note: One successful gmin step
Trying gmin =   1.0000E-04 Note: One successful gmin step
Trying gmin =   1.0000E-05 Note: One successful gmin step
Trying gmin =   1.0000E-06 Note: One successful gmin step
Trying gmin =   1.0000E-07 Note: One successful gmin step
Trying gmin =   1.0000E-08 Note: One successful gmin step
Trying gmin =   1.0000E-09 Note: One successful gmin step
Trying gmin =   1.0000E-10 Note: One successful gmin step
Trying gmin =   1.0000E-11 Note: One successful gmin step
Trying gmin =   1.0000E-12 Note: One successful gmin step
Note: One successful source step
Supplies reduced to   0.1000% Note: One successful source step
Supplies reduced to   0.2000% Note: One successful source step
Supplies reduced to   0.3500% Note: One successful source step
Supplies reduced to   0.5750% Note: One successful source step
Supplies reduced to   0.9125% Note: One successful source step
Supplies reduced to   1.4188% Note: One successful source step
Supplies reduced to   2.1781% Note: One successful source step
Supplies reduced to   3.3172% Note: One successful source step
Supplies reduced to   5.0258% Note: One successful source step
Supplies reduced to   7.5887% Note: One successful source step
Supplies reduced to  11.4330% Supplies reduced to   7.5887% Note: One successful source step
Supplies reduced to   8.1653% Note: One successful source step
Supplies reduced to   9.0303% Note: One successful source step
Supplies reduced to  10.3278% Note: One successful source step
Supplies reduced to  12.2740% Supplies reduced to  10.3278% Note: One successful source step
Supplies reduced to  10.5224% Note: One successful source step
Supplies reduced to  10.8143% Supplies reduced to  10.5224% Note: One successful source step
Supplies reduced to  10.5516% Note: One successful source step
Supplies reduced to  10.5662% Note: One successful source step
Supplies reduced to  10.5735% Note: One successful source step
Supplies reduced to  10.5771% Note: One successful source step
Supplies reduced to  10.5808% Supplies reduced to  10.5771% Warning: source stepping failed
Note: Transient op started
Note: Transient op finished successfully

Initial Transient Solution
--------------------------

Node                                   Voltage
----                                   -------
vdd                                        1.8
p2                                         1.8
p4                                           0
p1                                           0
p3                                           0
p5                                         1.8
p6                                           0
p0                                           0
p7                                           0
x1.x5.x2.net1                          1.79989
x1.net1                                 1.7998
x1.net4                             -0.0687355
x1.x5.x2.x1.net1                       1.34668
x1.x5.net2                         0.000609957
x1.x5.net3                           -0.170353
x1.x5.net1                             1.80044
x1.x5.x3.net1                     -0.000813311
x1.net2                                1.79826
x1.x5.x4.net1                          1.36628
x1.x5.x4.net2                         -0.16971
x1.net3                             -0.0113039
x1.x5.fib                            -0.010824
x1.x5.x1.net1                         0.391909
x1.x5.x1.net3                      -0.00337795
x1.x5.x1.net2                      -0.00602279
x1.x5.x1.net4                          1.80182
x1.x5.x1.net5                         0.456141
x1.x5.x6.net1                          1.80108
x1.x5.x6.net3                          1.79783
x1.x5.x6.net2                           1.3363
x1.x5.x6.net4                          0.66858
x1.x5.x6.net5                       0.00231531
x1.x6.x2.net1                          1.79995
x1.net5                                1.80002
x1.net6                             -0.0647549
x1.x6.x2.x1.net1                       1.34904
x1.x6.net2                          -0.0003759
x1.x6.net3                           -0.194036
x1.x6.net1                             1.79993
x1.x6.x3.net1                      4.53147e-05
x1.x6.x4.net1                           1.3266
x1.x6.x4.net2                          1.29672
x1.x6.fib                          -0.00128292
x1.x6.x1.net1                         0.394549
x1.x6.x1.net3                      -0.00165888
x1.x6.x1.net2                       0.00482891
x1.x6.x1.net4                          1.79926
x1.x6.x1.net5                        0.0755919
x1.x6.x6.net1                          1.79915
x1.x6.x6.net3                          1.79988
x1.x6.x6.net2                          1.37807
x1.x6.x6.net4                         0.658261
x1.x6.x6.net5                      0.000423177
x1.x7.x2.net1                     -0.000139369
x1.net7                                1.80002
x1.net8                                1.85763
x1.x7.x2.x1.net1                  -5.69507e-06
x1.x7.net2                             1.79977
x1.x7.net3                           -0.078518
x1.x7.net1                             1.80001
x1.x7.x3.net1                      3.80756e-05
x1.x7.x4.net1                           1.3531
x1.x7.x4.net2                        -0.119187
x1.x7.fib                         -0.000146067
x1.x7.x1.net1                         0.394572
x1.x7.x1.net3                      0.000154423
x1.x7.x1.net2                      -0.00053544
x1.x7.x1.net4                          1.80007
x1.x7.x1.net5                         0.111957
x1.x7.x6.net1                         0.394631
x1.x7.x6.net3                      0.000165025
x1.x7.x6.net2                     -0.000597872
x1.x7.x6.net4                          1.80005
x1.x7.x6.net5                         0.152188
x1.x8.x2.net1                          1.79992
fout                              -2.70552e-05
x1.x8.x2.x1.net1                  -1.93828e-05
x1.x8.net2                        -5.33006e-05
x1.x8.net3                             1.90109
x1.x8.net1                             1.80003
x1.x8.x3.net1                      7.97088e-05
x1.x8.x4.net1                          1.36794
x1.x8.x4.net2                      3.27003e-05
x1.x8.fib                          -4.0806e-05
x1.x8.x1.net1                          1.79974
x1.x8.x1.net3                          1.79994
x1.x8.x1.net2                          1.33647
x1.x8.x1.net4                          1.93477
x1.x8.x1.net5                      -6.2243e-05
x1.x8.x6.net1                          1.79975
x1.x8.x6.net3                          1.79996
x1.x8.x6.net2                          1.33651
x1.x8.x6.net4                          1.93254
x1.x8.x6.net5                      -4.3711e-05
x1.x1.x2.net1                          1.80098
x1.x1.x2.x1.net1                       1.34673
x1.x1.net2                        -2.75604e-05
x1.x1.net3                         0.000346144
x1.x1.net1                             1.79857
x1.x1.x3.net1                       0.00574073
x1.net9                            -0.00720973
x1.x1.x4.net1                          1.15035
x1.x1.x4.net2                        0.0733467
x1.net10                            0.00142547
x1.x1.fib                              1.80599
x1.x1.x1.net1                          1.81074
x1.x1.x1.net3                          1.82984
x1.x1.x1.net2                       0.00326194
x1.x1.x1.net4                         0.390867
x1.x1.x1.net5                      -0.00352514
x1.x1.x6.net1                          1.79581
x1.x1.x6.net3                          1.87784
x1.x1.x6.net2                         0.928372
x1.x1.x6.net4                         0.384778
x1.x1.x6.net5                     -0.000454674
x1.x2.x2.net1                          1.79747
x1.x2.x2.x1.net1                      0.928839
x1.x2.net2                        -0.000193416
x1.x2.net3                             1.80123
x1.x2.net1                             1.79982
x1.x2.x3.net1                        0.0016959
x1.net11                           0.000999177
x1.x2.x4.net1                          1.04417
x1.x2.x4.net2                          1.04405
x1.net12                          -8.92998e-05
x1.x2.fib                               1.7995
x1.x2.x1.net1                          1.80405
x1.x2.x1.net3                         0.478934
x1.x2.x1.net2                         0.445216
x1.x2.x1.net4                          1.79373
x1.x2.x1.net5                          1.15457
x1.x2.x6.net1                          1.80077
x1.x2.x6.net3                          1.97772
x1.x2.x6.net2                         0.901417
x1.x2.x6.net4                          0.38242
x1.x2.x6.net5                     -0.000899988
x1.x3.x2.net1                           1.8016
x1.x3.x2.x1.net1                      0.911281
x1.x3.net2                         0.000232701
x1.x3.net3                             1.79919
x1.x3.net1                             1.80031
x1.x3.x3.net1                      -0.00161946
x1.net13                              0.782648
x1.x3.x4.net1                         0.565244
x1.x3.x4.net2                        -0.130648
x1.net14                           0.000124136
x1.x3.fib                              1.62816
x1.x3.x1.net1                          1.80338
x1.x3.x1.net3                         0.493998
x1.x3.x1.net2                         0.358402
x1.x3.x1.net4                          1.79927
x1.x3.x1.net5                          1.00208
x1.x3.x6.net1                          1.80032
x1.x3.x6.net3                          1.81097
x1.x3.x6.net2                         0.443816
x1.x3.x6.net4                         0.978824
x1.x3.x6.net5                      0.000155398
x1.x4.x2.net1                          1.80001
x1.x4.x2.x1.net1                      0.462138
x1.x4.net2                         1.24212e-05
x1.x4.net3                            0.818518
x1.x4.net1                                 1.8
x1.x4.x3.net1                        0.0114142
fin                                        0.9
x1.x4.x4.net1                         0.655781
x1.x4.x4.net2                      3.28405e-07
opennet                                1.82078
x1.x4.fib                             0.342034
x1.x4.x1.net1                          1.75644
x1.x4.x1.net3                          1.74203
x1.x4.x1.net2                         0.168254
x1.x4.x1.net4                           1.1991
x1.x4.x1.net5                      4.76754e-06
x1.x4.x6.net1                          1.79997
x1.x4.x6.net3                          1.80006
x1.x4.x6.net2                         0.553197
x1.x4.x6.net4                          1.82072
x1.x4.x6.net5                       3.6185e-05
v1#branch                          7.19562e-07
vdd8#branch                        5.40839e-06
vdd7#branch                       -2.00367e-08
vdd6#branch                        3.65582e-07
vdd5#branch                       -2.69889e-06
vdd4#branch                       -1.09106e-05
vdd3#branch                        8.97355e-07
vdd2#branch                       -5.56857e-06
vdd1#branch                        2.49389e-05
vdd#branch                         1.35063e-05


No. of Data Rows : 50008

  Measurements for Transient Analysis

tdiff               =  1.000000e-07 targ=  3.044519e-07 trig=  2.044519e-07
f_out               =  1.00000e+07
n                   =  2.20000e+02

ngspice-37 done
