
Note: No compatibility mode selected!


Circuit: ** sch_path: /home/mohamed/simulations/divider_tb.sch

Doing analysis at TEMP = 27.000000 and TNOM = 27.000000

Warning: v1: no DC value, transient time 0 value used
Note: Starting dynamic gmin stepping
Trying gmin =   1.0000E-03 Note: One successful gmin step
Trying gmin =   1.0000E-04 Note: One successful gmin step
Trying gmin =   1.0000E-05 Note: One successful gmin step
Trying gmin =   3.1623E-06 Warning: Further gmin increment
Trying gmin =   7.4989E-06 Warning: Further gmin increment
Trying gmin =   9.3057E-06 Warning: Further gmin increment
Trying gmin =   9.8217E-06 Note: One successful gmin step
Trying gmin =   9.5602E-06 Warning: Further gmin increment
Trying gmin =   9.7557E-06 Note: One successful gmin step
Trying gmin =   9.6575E-06 Warning: Further gmin increment
Trying gmin =   9.7310E-06 Note: One successful gmin step
Trying gmin =   9.6942E-06 Note: One successful gmin step
Trying gmin =   9.6392E-06 Warning: Further gmin increment
Trying gmin =   9.6804E-06 Note: One successful gmin step
Trying gmin =   9.6598E-06 Warning: Further gmin increment
Trying gmin =   9.6752E-06 Note: One successful gmin step
Trying gmin =   9.6675E-06 Note: One successful gmin step
Trying gmin =   9.6559E-06 Warning: Further gmin increment
Trying gmin =   9.6646E-06 Note: One successful gmin step
Trying gmin =   9.6602E-06 Warning: Further gmin increment
Trying gmin =   9.6635E-06 Note: One successful gmin step
Trying gmin =   9.6619E-06 Note: One successful gmin step
Trying gmin =   9.6594E-06 Warning: Further gmin increment
Trying gmin =   9.6613E-06 Note: One successful gmin step
Trying gmin =   9.6603E-06 Warning: Further gmin increment
Trying gmin =   9.6610E-06 Note: One successful gmin step
Trying gmin =   9.6607E-06 Note: One successful gmin step
Trying gmin =   9.6602E-06 Warning: Further gmin increment
Trying gmin =   9.6606E-06 Warning: Last gmin step failed
Warning: Dynamic gmin stepping failed
Note: Starting true gmin stepping
Trying gmin =   1.0000E-03 Note: One successful gmin step
Trying gmin =   1.0000E-04 Note: One successful gmin step
Trying gmin =   1.0000E-05 Note: One successful gmin step
Trying gmin =   3.1623E-06 Note: One successful gmin step
Trying gmin =   5.6234E-07 Note: One successful gmin step
Trying gmin =   5.6234E-08 Note: One successful gmin step
Trying gmin =   5.6234E-09 Note: One successful gmin step
Trying gmin =   5.6234E-10 Note: One successful gmin step
Trying gmin =   5.6234E-11 Note: One successful gmin step
Trying gmin =   5.6234E-12 Warning: Further gmin increment
Trying gmin =   3.1623E-11 Note: One successful gmin step
Trying gmin =   1.3335E-11 Note: One successful gmin step
Trying gmin =   5.6234E-12 Warning: Further gmin increment
Trying gmin =   1.0746E-11 Note: One successful gmin step
Trying gmin =   9.6466E-12 Note: One successful gmin step
Trying gmin =   8.6596E-12 Warning: Further gmin increment
Trying gmin =   9.3898E-12 Note: One successful gmin step
Trying gmin =   9.0173E-12 Note: One successful gmin step
Trying gmin =   8.4862E-12 Note: One successful gmin step
Trying gmin =   7.9863E-12 Warning: Further gmin increment
Trying gmin =   8.3583E-12 Note: One successful gmin step
Trying gmin =   8.2324E-12 Warning: Further gmin increment
Trying gmin =   8.3267E-12 Note: One successful gmin step
Trying gmin =   8.2794E-12 Note: One successful gmin step
Trying gmin =   8.2559E-12 Warning: Further gmin increment
Trying gmin =   8.2735E-12 Note: One successful gmin step
Trying gmin =   8.2706E-12 Warning: Further gmin increment
Trying gmin =   8.2728E-12 Warning: Further gmin increment
Trying gmin =   8.2733E-12 Warning: Last gmin step failed
Note: True gmin stepping completed

Initial Transient Solution
--------------------------

Node                                   Voltage
----                                   -------
vdd                                        1.8
p2                                         1.8
p4                                         1.8
p1                                         1.8
p3                                         1.8
p5                                           0
p6                                           0
p0                                         1.8
p7                                           0
x1.x5.x2.net1                      7.52101e-06
x1.net1                                    1.8
x1.net4                                1.56562
x1.x5.x2.x1.net1                    4.0661e-06
x1.x5.net2                                 1.8
x1.x5.net3                             1.76792
x1.x5.net1                         5.58791e-07
x1.x5.x3.net1                          1.44904
x1.net2                                    1.8
x1.x5.x4.net1                       3.7348e-07
x1.x5.x4.net2                      1.88169e-07
x1.net3                                1.76801
x1.x5.fib                           1.4458e-07
x1.x5.x1.net1                         0.352135
x1.x5.x1.net3                      1.21141e-07
x1.x5.x1.net2                      6.05707e-08
x1.x5.x1.net4                              1.8
x1.x5.x1.net5                        0.0418086
x1.x5.x6.net1                         0.352135
x1.x5.x6.net3                      1.21142e-07
x1.x5.x6.net2                      6.05708e-08
x1.x5.x6.net4                              1.8
x1.x5.x6.net5                         0.041806
x1.x6.x2.net1                              1.8
x1.net5                            7.45391e-06
x1.net6                            5.97725e-06
x1.x6.x2.x1.net1                     0.0726877
x1.x6.net2                          1.4458e-07
x1.x6.net3                             1.56624
x1.x6.net1                                 1.8
x1.x6.x3.net1                      3.42506e-06
x1.x6.x4.net1                          1.48639
x1.x6.x4.net2                      1.04506e-10
x1.x6.fib                           1.4458e-07
x1.x6.x1.net1                              1.8
x1.x6.x1.net3                              1.8
x1.x6.x1.net2                          1.45515
x1.x6.x1.net4                          1.77255
x1.x6.x1.net5                      1.25919e-10
x1.x6.x6.net1                              1.8
x1.x6.x6.net3                              1.8
x1.x6.x6.net2                          1.45514
x1.x6.x6.net4                          1.77249
x1.x6.x6.net5                      1.25845e-10
x1.x7.x2.net1                      7.43468e-06
x1.net7                                    1.8
x1.net8                                1.56642
x1.x7.x2.x1.net1                   4.01815e-06
x1.x7.net2                                 1.8
x1.x7.net3                         6.09175e-06
x1.x7.net1                                 1.8
x1.x7.x3.net1                      5.96358e-10
x1.x7.x4.net1                        0.0535565
x1.x7.x4.net2                        0.0107143
x1.x7.fib                                  1.8
x1.x7.x1.net1                          1.77251
x1.x7.x1.net3                          1.56539
x1.x7.x1.net2                      1.25841e-10
x1.x7.x1.net4                         0.529689
x1.x7.x1.net5                      3.31087e-06
x1.x7.x6.net1                          1.77261
x1.x7.x6.net3                          1.56675
x1.x7.x6.net2                      1.26005e-10
x1.x7.x6.net4                         0.528751
x1.x7.x6.net5                      3.24687e-06
x1.x8.x2.net1                              1.8
fout                               7.51284e-06
x1.x8.x2.x1.net1                   5.96379e-10
x1.x8.net2                          1.4458e-07
x1.x8.net3                             1.56569
x1.x8.net1                                 1.8
x1.x8.x3.net1                      3.45126e-06
x1.x8.x4.net1                          1.48639
x1.x8.x4.net2                       1.0444e-10
x1.x8.fib                           1.4458e-07
x1.x8.x1.net1                              1.8
x1.x8.x1.net3                              1.8
x1.x8.x1.net2                          1.45515
x1.x8.x1.net4                          1.77251
x1.x8.x1.net5                      1.25854e-10
x1.x8.x6.net1                              1.8
x1.x8.x6.net3                              1.8
x1.x8.x6.net2                          1.45515
x1.x8.x6.net4                          1.77259
x1.x8.x6.net5                      1.25941e-10
x1.x1.x2.net1                      4.17516e-07
x1.x1.x2.x1.net1                   2.10653e-07
x1.x1.net2                                 1.8
x1.x1.net3                             1.76788
x1.x1.net1                         5.59726e-07
x1.x1.x3.net1                          1.44901
x1.net9                                    1.8
x1.x1.x4.net1                       3.7411e-07
x1.x1.x4.net2                      1.88495e-07
x1.net10                               1.76783
x1.x1.fib                           1.4458e-07
x1.x1.x1.net1                         0.352135
x1.x1.x1.net3                      1.21142e-07
x1.x1.x1.net2                      6.05708e-08
x1.x1.x1.net4                              1.8
x1.x1.x1.net5                        0.0418082
x1.x1.x6.net1                         0.352135
x1.x1.x6.net3                      1.21141e-07
x1.x1.x6.net2                      6.05705e-08
x1.x1.x6.net4                              1.8
x1.x1.x6.net5                        0.0418082
x1.x2.x2.net1                      4.18462e-07
x1.x2.x2.x1.net1                   2.11142e-07
x1.x2.net2                                 1.8
x1.x2.net3                             1.76789
x1.x2.net1                         5.59546e-07
x1.x2.x3.net1                          1.44901
x1.net11                                   1.8
x1.x2.x4.net1                      3.73989e-07
x1.x2.x4.net2                      1.88432e-07
x1.net12                               1.76786
x1.x2.fib                           1.4458e-07
x1.x2.x1.net1                         0.352135
x1.x2.x1.net3                      1.21141e-07
x1.x2.x1.net2                      6.05707e-08
x1.x2.x1.net4                              1.8
x1.x2.x1.net5                        0.0418168
x1.x2.x6.net1                         0.352135
x1.x2.x6.net3                      1.21142e-07
x1.x2.x6.net2                      6.05708e-08
x1.x2.x6.net4                              1.8
x1.x2.x6.net5                        0.0418064
x1.x3.x2.net1                       4.1828e-07
x1.x3.x2.x1.net1                   2.11048e-07
x1.x3.net2                                 1.8
x1.x3.net3                             1.76788
x1.x3.net1                         5.59533e-07
x1.x3.x3.net1                            1.449
x1.net13                                   1.8
x1.x3.x4.net1                      3.73981e-07
x1.x3.x4.net2                      1.88428e-07
x1.net14                               1.76787
x1.x3.fib                           1.4458e-07
x1.x3.x1.net1                         0.352135
x1.x3.x1.net3                      1.21141e-07
x1.x3.x1.net2                      6.05707e-08
x1.x3.x1.net4                              1.8
x1.x3.x1.net5                        0.0418091
x1.x3.x6.net1                         0.352135
x1.x3.x6.net3                      1.21141e-07
x1.x3.x6.net2                      6.05707e-08
x1.x3.x6.net4                              1.8
x1.x3.x6.net5                        0.0418043
x1.x4.x2.net1                      4.18268e-07
x1.x4.x2.x1.net1                   2.11041e-07
x1.x4.net2                                 1.8
x1.x4.net3                                 1.8
x1.x4.net1                           0.0614494
x1.x4.x3.net1                          1.44764
fin                                        0.9
x1.x4.x4.net1                        0.0152704
x1.x4.x4.net2                       0.00761542
opennet                                    1.8
x1.x4.fib                             0.342053
x1.x4.x1.net1                         0.607838
x1.x4.x1.net3                      1.98963e-07
x1.x4.x1.net2                      3.07278e-08
x1.x4.x1.net4                              1.8
x1.x4.x1.net5                         0.267368
x1.x4.x6.net1                         0.607838
x1.x4.x6.net3                      1.98962e-07
x1.x4.x6.net2                      3.07276e-08
x1.x4.x6.net4                              1.8
x1.x4.x6.net5                         0.267374
v1#branch                                    0
vdd8#branch                                  0
vdd7#branch                                  0
vdd6#branch                                  0
vdd5#branch                                  0
vdd4#branch                                  0
vdd3#branch                                  0
vdd2#branch                                  0
vdd1#branch                                  0
vdd#branch                        -0.000131539


No. of Data Rows : 50008

  Measurements for Transient Analysis

tdiff               =  1.000000e-07 targ=  2.968199e-07 trig=  1.968199e-07
f_out               =  1.00000e+07
n                   =  2.25000e+02

ngspice-37 done
