
Note: No compatibility mode selected!


Circuit: ** sch_path: /home/mohamed/simulations/divider_tb.sch

Doing analysis at TEMP = 27.000000 and TNOM = 27.000000

Warning: v1: no DC value, transient time 0 value used
Note: Starting dynamic gmin stepping
Trying gmin =   1.0000E-03 Note: One successful gmin step
Trying gmin =   1.0000E-04 Note: One successful gmin step
Trying gmin =   1.0000E-05 Note: One successful gmin step
Trying gmin =   1.0000E-06 Warning: Further gmin increment
Trying gmin =   5.6234E-06 Warning: Further gmin increment
Trying gmin =   8.6596E-06 Warning: Further gmin increment
Trying gmin =   9.6466E-06 Warning: Further gmin increment
Trying gmin =   9.9105E-06 Note: One successful gmin step
Trying gmin =   9.7776E-06 Note: One successful gmin step
Trying gmin =   9.5818E-06 Warning: Further gmin increment
Trying gmin =   9.7283E-06 Note: One successful gmin step
Trying gmin =   9.6548E-06 Warning: Further gmin increment
Trying gmin =   9.7099E-06 Note: One successful gmin step
Trying gmin =   9.6823E-06 Note: One successful gmin step
Trying gmin =   9.6410E-06 Note: One successful gmin step
Trying gmin =   9.6205E-06 Note: One successful gmin step
Trying gmin =   9.6000E-06 Warning: Further gmin increment
Trying gmin =   9.6153E-06 Note: One successful gmin step
Trying gmin =   9.6076E-06 Note: One successful gmin step
Trying gmin =   9.5961E-06 Note: One successful gmin step
Trying gmin =   9.5846E-06 Note: One successful gmin step
Trying gmin =   9.5674E-06 Note: One successful gmin step
Trying gmin =   9.5415E-06 Note: One successful gmin step
Trying gmin =   9.5158E-06 Note: One successful gmin step
Trying gmin =   9.4773E-06 Note: One successful gmin step
Trying gmin =   9.4199E-06 Note: One successful gmin step
Trying gmin =   9.3344E-06 Note: One successful gmin step
Trying gmin =   9.2076E-06 Note: One successful gmin step
Trying gmin =   9.0207E-06 Note: One successful gmin step
Trying gmin =   8.7473E-06 Note: One successful gmin step
Trying gmin =   8.6138E-06 Note: One successful gmin step
Trying gmin =   8.4173E-06 Note: One successful gmin step
Trying gmin =   8.1309E-06 Warning: Further gmin increment
Trying gmin =   8.3447E-06 Warning: Further gmin increment
Trying gmin =   8.3991E-06 Note: One successful gmin step
Trying gmin =   8.3718E-06 Warning: Further gmin increment
Trying gmin =   8.3923E-06 Note: One successful gmin step
Trying gmin =   8.3820E-06 Warning: Further gmin increment
Trying gmin =   8.3897E-06 Note: One successful gmin step
Trying gmin =   8.3859E-06 Note: One successful gmin step
Trying gmin =   8.3801E-06 Warning: Further gmin increment
Trying gmin =   8.3844E-06 Note: One successful gmin step
Trying gmin =   8.3823E-06 Warning: Further gmin increment
Trying gmin =   8.3839E-06 Warning: Further gmin increment
Trying gmin =   8.3843E-06 Note: One successful gmin step
Trying gmin =   8.3841E-06 Note: One successful gmin step
Trying gmin =   8.3838E-06 Warning: Last gmin step failed
Warning: Dynamic gmin stepping failed
Note: Starting true gmin stepping
Trying gmin =   1.0000E-03 Note: One successful gmin step
Trying gmin =   1.0000E-04 Note: One successful gmin step
Trying gmin =   1.0000E-05 Warning: Further gmin increment
Trying gmin =   5.6234E-05 Note: One successful gmin step
Trying gmin =   4.2170E-05 Note: One successful gmin step
Trying gmin =   3.6517E-05 Note: One successful gmin step
Trying gmin =   2.9427E-05 Note: One successful gmin step
Trying gmin =   2.1288E-05 Note: One successful gmin step
Trying gmin =   1.3097E-05 Note: One successful gmin step
Trying gmin =   6.3209E-06 Note: One successful gmin step
Trying gmin =   2.1192E-06 Note: One successful gmin step
Trying gmin =   4.1139E-07 Note: One successful gmin step
Trying gmin =   4.1139E-08 Note: One successful gmin step
Trying gmin =   4.1139E-09 Note: One successful gmin step
Trying gmin =   4.1139E-10 Note: One successful gmin step
Trying gmin =   4.1139E-11 Note: One successful gmin step
Trying gmin =   4.1139E-12 Warning: Further gmin increment
Trying gmin =   2.3134E-11 Note: One successful gmin step
Trying gmin =   9.7557E-12 Warning: Further gmin increment
Trying gmin =   1.8643E-11 Note: One successful gmin step
Trying gmin =   1.6735E-11 Note: One successful gmin step
Trying gmin =   1.5023E-11 Note: One successful gmin step
Trying gmin =   1.3486E-11 Warning: Further gmin increment
Trying gmin =   1.4623E-11 Note: One successful gmin step
Trying gmin =   1.4427E-11 Note: One successful gmin step
Trying gmin =   1.4330E-11 Note: One successful gmin step
Trying gmin =   1.4234E-11 Warning: Further gmin increment
Trying gmin =   1.4306E-11 Note: One successful gmin step
Trying gmin =   1.4282E-11 Note: One successful gmin step
Trying gmin =   1.4246E-11 Note: One successful gmin step
Trying gmin =   1.4228E-11 Note: One successful gmin step
Trying gmin =   1.4210E-11 Note: One successful gmin step
Trying gmin =   1.4192E-11 Note: One successful gmin step
Trying gmin =   1.4174E-11 Warning: Further gmin increment
Trying gmin =   1.4187E-11 Note: One successful gmin step
Trying gmin =   1.4185E-11 Note: One successful gmin step
Trying gmin =   1.4183E-11 Note: One successful gmin step
Trying gmin =   1.4181E-11 Note: One successful gmin step
Trying gmin =   1.4178E-11 Warning: Further gmin increment
Trying gmin =   1.4180E-11 Note: One successful gmin step
Trying gmin =   1.4180E-11 Note: One successful gmin step
Trying gmin =   1.4179E-11 Warning: Last gmin step failed
Note: True gmin stepping completed

Initial Transient Solution
--------------------------

Node                                   Voltage
----                                   -------
vdd                                        1.8
p2                                         1.8
p4                                         1.8
p1                                         1.8
p3                                           0
p5                                           0
p6                                           0
p0                                         1.8
p7                                           0
x1.x5.x2.net1                      7.48715e-06
x1.net1                                    1.8
x1.net4                                1.56593
x1.x5.x2.x1.net1                    4.0473e-06
x1.x5.net2                                 1.8
x1.x5.net3                         5.93801e-06
x1.x5.net1                                 1.8
x1.x5.x3.net1                      5.96356e-10
x1.net2                            7.44749e-06
x1.x5.x4.net1                        0.0414134
x1.x5.x4.net2                        0.0414134
x1.net3                            5.97463e-06
x1.x5.fib                                  1.8
x1.x5.x1.net1                          1.77261
x1.x5.x1.net3                          1.56719
x1.x5.x1.net2                      1.26058e-10
x1.x5.x1.net4                         0.528572
x1.x5.x1.net5                      3.22494e-06
x1.x5.x6.net1                          1.77258
x1.x5.x6.net3                          1.56677
x1.x5.x6.net2                      1.26007e-10
x1.x5.x6.net4                         0.528803
x1.x5.x6.net5                      3.24542e-06
x1.x6.x2.net1                              1.8
x1.net5                            7.36216e-06
x1.net6                            6.00946e-06
x1.x6.x2.x1.net1                     0.0726938
x1.x6.net2                          1.4458e-07
x1.x6.net3                             1.56709
x1.x6.net1                                 1.8
x1.x6.x3.net1                      3.38426e-06
x1.x6.x4.net1                          1.48639
x1.x6.x4.net2                      1.04481e-10
x1.x6.fib                           1.4458e-07
x1.x6.x1.net1                              1.8
x1.x6.x1.net3                              1.8
x1.x6.x1.net2                          1.45514
x1.x6.x1.net4                          1.77262
x1.x6.x1.net5                      1.26022e-10
x1.x6.x6.net1                              1.8
x1.x6.x6.net3                              1.8
x1.x6.x6.net2                          1.45514
x1.x6.x6.net4                          1.77254
x1.x6.x6.net5                      1.25882e-10
x1.x7.x2.net1                      7.43922e-06
x1.net7                                    1.8
x1.net8                                1.56637
x1.x7.x2.x1.net1                   4.02067e-06
x1.x7.net2                                 1.8
x1.x7.net3                         6.05006e-06
x1.x7.net1                                 1.8
x1.x7.x3.net1                      5.96358e-10
x1.x7.x4.net1                        0.0535489
x1.x7.x4.net2                        0.0107125
x1.x7.fib                                  1.8
x1.x7.x1.net1                          1.77253
x1.x7.x1.net3                          1.56588
x1.x7.x1.net2                      1.25901e-10
x1.x7.x1.net4                         0.529347
x1.x7.x1.net5                      3.28757e-06
x1.x7.x6.net1                          1.77256
x1.x7.x6.net3                          1.56636
x1.x7.x6.net2                      1.25958e-10
x1.x7.x6.net4                         0.529071
x1.x7.x6.net5                      3.26489e-06
x1.x8.x2.net1                              1.8
fout                               7.43513e-06
x1.x8.x2.x1.net1                   5.96378e-10
x1.x8.net2                          1.4458e-07
x1.x8.net3                             1.56641
x1.x8.net1                                 1.8
x1.x8.x3.net1                      3.41672e-06
x1.x8.x4.net1                          1.48639
x1.x8.x4.net2                      1.04444e-10
x1.x8.fib                           1.4458e-07
x1.x8.x1.net1                              1.8
x1.x8.x1.net3                              1.8
x1.x8.x1.net2                          1.45515
x1.x8.x1.net4                          1.77257
x1.x8.x1.net5                       1.2594e-10
x1.x8.x6.net1                              1.8
x1.x8.x6.net3                              1.8
x1.x8.x6.net2                          1.45514
x1.x8.x6.net4                          1.77258
x1.x8.x6.net5                      1.25936e-10
x1.x1.x2.net1                              1.8
x1.x1.x2.x1.net1                     0.0726941
x1.x1.net2                          1.4458e-07
x1.x1.net3                              1.5663
x1.x1.net1                                 1.8
x1.x1.x3.net1                      3.42221e-06
x1.net9                                    1.8
x1.x1.x4.net1                          1.48641
x1.x1.x4.net2                      1.04487e-10
x1.net10                               1.56588
x1.x1.fib                           1.4458e-07
x1.x1.x1.net1                              1.8
x1.x1.x1.net3                              1.8
x1.x1.x1.net2                          1.45514
x1.x1.x1.net4                          1.77256
x1.x1.x1.net5                      1.25927e-10
x1.x1.x6.net1                              1.8
x1.x1.x6.net3                              1.8
x1.x1.x6.net2                          1.45513
x1.x1.x6.net4                          1.77256
x1.x1.x6.net5                      1.25876e-10
x1.x2.x2.net1                      7.49064e-06
x1.x2.x2.x1.net1                   4.04921e-06
x1.x2.net2                                 1.8
x1.x2.net3                              1.7679
x1.x2.net1                         5.59307e-07
x1.x2.x3.net1                          1.44902
x1.net11                                   1.8
x1.x2.x4.net1                      3.73828e-07
x1.x2.x4.net2                      1.88349e-07
x1.net12                               1.76791
x1.x2.fib                           1.4458e-07
x1.x2.x1.net1                         0.352135
x1.x2.x1.net3                      1.21141e-07
x1.x2.x1.net2                      6.05706e-08
x1.x2.x1.net4                              1.8
x1.x2.x1.net5                        0.0418085
x1.x2.x6.net1                         0.352135
x1.x2.x6.net3                      1.21141e-07
x1.x2.x6.net2                      6.05707e-08
x1.x2.x6.net4                              1.8
x1.x2.x6.net5                        0.0418095
x1.x3.x2.net1                      4.18038e-07
x1.x3.x2.x1.net1                   2.10923e-07
x1.x3.net2                                 1.8
x1.x3.net3                             1.76803
x1.x3.net1                         5.59586e-07
x1.x3.x3.net1                          1.44912
x1.net13                                   1.8
x1.x3.x4.net1                      3.74016e-07
x1.x3.x4.net2                      1.88446e-07
x1.net14                               1.76786
x1.x3.fib                           1.4458e-07
x1.x3.x1.net1                         0.352135
x1.x3.x1.net3                      1.21141e-07
x1.x3.x1.net2                      6.05706e-08
x1.x3.x1.net4                              1.8
x1.x3.x1.net5                        0.0418117
x1.x3.x6.net1                         0.352135
x1.x3.x6.net3                      1.21141e-07
x1.x3.x6.net2                      6.05707e-08
x1.x3.x6.net4                              1.8
x1.x3.x6.net5                        0.0418061
x1.x4.x2.net1                      4.18321e-07
x1.x4.x2.x1.net1                   2.11069e-07
x1.x4.net2                                 1.8
x1.x4.net3                                 1.8
x1.x4.net1                           0.0614494
x1.x4.x3.net1                          1.44763
fin                                        0.9
x1.x4.x4.net1                        0.0152704
x1.x4.x4.net2                       0.00761542
opennet                                    1.8
x1.x4.fib                             0.342053
x1.x4.x1.net1                         0.607838
x1.x4.x1.net3                      1.98964e-07
x1.x4.x1.net2                      3.07279e-08
x1.x4.x1.net4                              1.8
x1.x4.x1.net5                         0.267374
x1.x4.x6.net1                         0.607838
x1.x4.x6.net3                      1.98963e-07
x1.x4.x6.net2                      3.07278e-08
x1.x4.x6.net4                              1.8
x1.x4.x6.net5                         0.267377
v1#branch                                    0
vdd8#branch                                  0
vdd7#branch                                  0
vdd6#branch                                  0
vdd5#branch                                  0
vdd4#branch                                  0
vdd3#branch                                  0
vdd2#branch                                  0
vdd1#branch                                  0
vdd#branch                        -0.000131592


No. of Data Rows : 50008

  Measurements for Transient Analysis

tdiff               =  1.000000e-07 targ=  3.055469e-07 trig=  2.055469e-07
f_out               =  1.00000e+07
n                   =  2.33000e+02

ngspice-37 done
