
Note: No compatibility mode selected!


Circuit: ** sch_path: /home/mohamed/simulations/divider_tb.sch

Doing analysis at TEMP = 27.000000 and TNOM = 27.000000

Warning: v1: no DC value, transient time 0 value used
Note: Starting dynamic gmin stepping
Trying gmin =   1.0000E-03 Note: One successful gmin step
Trying gmin =   1.0000E-04 Note: One successful gmin step
Trying gmin =   1.0000E-05 Note: One successful gmin step
Trying gmin =   1.0000E-06 Warning: Further gmin increment
Trying gmin =   5.6234E-06 Warning: Further gmin increment
Trying gmin =   8.6596E-06 Note: One successful gmin step
Trying gmin =   8.0584E-06 Note: One successful gmin step
Trying gmin =   7.4989E-06 Note: One successful gmin step
Trying gmin =   6.7317E-06 Note: One successful gmin step
Trying gmin =   5.7255E-06 Note: One successful gmin step
Trying gmin =   4.4910E-06 Note: One successful gmin step
Trying gmin =   3.1199E-06 Warning: Further gmin increment
Trying gmin =   4.1001E-06 Note: One successful gmin step
Trying gmin =   3.5766E-06 Warning: Further gmin increment
Trying gmin =   3.9624E-06 Note: One successful gmin step
Trying gmin =   3.7646E-06 Note: One successful gmin step
Trying gmin =   3.4861E-06 Note: One successful gmin step
Trying gmin =   3.1066E-06 Note: One successful gmin step
Trying gmin =   2.6134E-06 Note: One successful gmin step
Trying gmin =   2.0164E-06 Note: One successful gmin step
Trying gmin =   1.3666E-06 Note: One successful gmin step
Trying gmin =   9.2618E-07 Warning: Further gmin increment
Trying gmin =   1.2399E-06 Note: One successful gmin step
Trying gmin =   1.0716E-06 Note: One successful gmin step
Trying gmin =   8.6103E-07 Warning: Further gmin increment
Trying gmin =   1.0146E-06 Note: One successful gmin step
Trying gmin =   9.3466E-07 Warning: Further gmin increment
Trying gmin =   9.9399E-07 Warning: Further gmin increment
Trying gmin =   1.0094E-06 Note: One successful gmin step
Trying gmin =   1.0042E-06 Note: One successful gmin step
Trying gmin =   9.9654E-07 Note: One successful gmin step
Trying gmin =   9.8511E-07 Note: One successful gmin step
Trying gmin =   9.6820E-07 Note: One successful gmin step
Trying gmin =   9.4339E-07 Note: One successful gmin step
Trying gmin =   9.0735E-07 Note: One successful gmin step
Trying gmin =   8.5587E-07 Note: One successful gmin step
Trying gmin =   7.8407E-07 Note: One successful gmin step
Trying gmin =   6.8750E-07 Note: One successful gmin step
Trying gmin =   5.6448E-07 Note: One successful gmin step
Trying gmin =   4.1997E-07 Warning: Further gmin increment
Trying gmin =   5.2425E-07 Note: One successful gmin step
Trying gmin =   4.6922E-07 Note: One successful gmin step
Trying gmin =   4.4391E-07 Note: One successful gmin step
Trying gmin =   4.0848E-07 Note: One successful gmin step
Trying gmin =   3.6057E-07 Note: One successful gmin step
Trying gmin =   2.9903E-07 Note: One successful gmin step
Trying gmin =   2.4799E-07 Note: One successful gmin step
Trying gmin =   1.8730E-07 Warning: Further gmin increment
Trying gmin =   2.3119E-07 Warning: Further gmin increment
Trying gmin =   2.4368E-07 Warning: Further gmin increment
Trying gmin =   2.4691E-07 Note: One successful gmin step
Trying gmin =   2.4529E-07 Note: One successful gmin step
Trying gmin =   2.4288E-07 Note: One successful gmin step
Trying gmin =   2.4169E-07 Note: One successful gmin step
Trying gmin =   2.3990E-07 Note: One successful gmin step
Trying gmin =   2.3725E-07 Note: One successful gmin step
Trying gmin =   2.3334E-07 Note: One successful gmin step
Trying gmin =   2.2758E-07 Note: One successful gmin step
Trying gmin =   2.1921E-07 Note: One successful gmin step
Trying gmin =   2.0723E-07 Note: One successful gmin step
Trying gmin =   1.9047E-07 Note: One successful gmin step
Trying gmin =   1.6785E-07 Note: One successful gmin step
Trying gmin =   1.3884E-07 Note: One successful gmin step
Trying gmin =   1.0446E-07 Note: One successful gmin step
Trying gmin =   6.8169E-08 Note: One successful gmin step
Trying gmin =   3.5937E-08 Note: One successful gmin step
Trying gmin =   1.3756E-08 Note: One successful gmin step
Trying gmin =   3.2575E-09 Note: One successful gmin step
Trying gmin =   7.7140E-10 Warning: Further gmin increment
Trying gmin =   2.2724E-09 Warning: Further gmin increment
Trying gmin =   2.9770E-09 Note: One successful gmin step
Trying gmin =   2.6009E-09 Warning: Further gmin increment
Trying gmin =   2.8782E-09 Warning: Further gmin increment
Trying gmin =   2.9520E-09 Note: One successful gmin step
Trying gmin =   2.9148E-09 Warning: Further gmin increment
Trying gmin =   2.9426E-09 Note: One successful gmin step
Trying gmin =   2.9287E-09 Note: One successful gmin step
Trying gmin =   2.9079E-09 Warning: Further gmin increment
Trying gmin =   2.9235E-09 Note: One successful gmin step
Trying gmin =   2.9157E-09 Warning: Further gmin increment
Trying gmin =   2.9216E-09 Note: One successful gmin step
Trying gmin =   2.9186E-09 Warning: Further gmin increment
Trying gmin =   2.9208E-09 Note: One successful gmin step
Trying gmin =   2.9201E-09 Note: One successful gmin step
Trying gmin =   2.9190E-09 Warning: Further gmin increment
Trying gmin =   2.9198E-09 Note: One successful gmin step
Trying gmin =   2.9195E-09 Warning: Further gmin increment
Trying gmin =   2.9197E-09 Warning: Last gmin step failed
Warning: Dynamic gmin stepping failed
Note: Starting true gmin stepping
Trying gmin =   1.0000E-03 Note: One successful gmin step
Trying gmin =   1.0000E-04 Note: One successful gmin step
Trying gmin =   1.0000E-05 Note: One successful gmin step
Trying gmin =   3.1623E-06 Note: One successful gmin step
Trying gmin =   5.6234E-07 Note: One successful gmin step
Trying gmin =   5.6234E-08 Note: One successful gmin step
Trying gmin =   5.6234E-09 Note: One successful gmin step
Trying gmin =   5.6234E-10 Warning: Further gmin increment
Trying gmin =   3.1623E-09 Note: One successful gmin step
Trying gmin =   1.3335E-09 Warning: Further gmin increment
Trying gmin =   2.5483E-09 Note: One successful gmin step
Trying gmin =   1.8434E-09 Note: One successful gmin step
Trying gmin =   1.1342E-09 Warning: Further gmin increment
Trying gmin =   1.6326E-09 Note: One successful gmin step
Trying gmin =   1.3608E-09 Warning: Further gmin increment
Trying gmin =   1.5600E-09 Note: One successful gmin step
Trying gmin =   1.4570E-09 Warning: Further gmin increment
Trying gmin =   1.5336E-09 Note: One successful gmin step
Trying gmin =   1.4948E-09 Note: One successful gmin step
Trying gmin =   1.4384E-09 Warning: Further gmin increment
Trying gmin =   1.4805E-09 Note: One successful gmin step
Trying gmin =   1.4593E-09 Warning: Further gmin increment
Trying gmin =   1.4752E-09 Note: One successful gmin step
Trying gmin =   1.4672E-09 Note: One successful gmin step
Trying gmin =   1.4554E-09 Warning: Further gmin increment
Trying gmin =   1.4642E-09 Note: One successful gmin step
Trying gmin =   1.4628E-09 Warning: Further gmin increment
Trying gmin =   1.4639E-09 Warning: Further gmin increment
Trying gmin =   1.4642E-09 Note: One successful gmin step
Trying gmin =   1.4641E-09 Warning: Further gmin increment
Trying gmin =   1.4641E-09 Note: One successful gmin step
Trying gmin =   1.4641E-09 Note: One successful gmin step
Trying gmin =   1.4641E-09 Note: One successful gmin step
Trying gmin =   1.4640E-09 Warning: Further gmin increment
Trying gmin =   1.4640E-09 Note: One successful gmin step
Trying gmin =   1.4640E-09 Warning: Further gmin increment
Trying gmin =   1.4640E-09 Warning: Last gmin step failed
Warning: True gmin stepping failed
Note: Starting source stepping
Supplies reduced to   0.0000% 
Trying gmin =   1.0000E-02 Note: One successful gmin step
Trying gmin =   1.0000E-03 Note: One successful gmin step
Trying gmin =   1.0000E-04 Note: One successful gmin step
Trying gmin =   1.0000E-05 Note: One successful gmin step
Trying gmin =   1.0000E-06 Note: One successful gmin step
Trying gmin =   1.0000E-07 Note: One successful gmin step
Trying gmin =   1.0000E-08 Note: One successful gmin step
Trying gmin =   1.0000E-09 Note: One successful gmin step
Trying gmin =   1.0000E-10 Note: One successful gmin step
Trying gmin =   1.0000E-11 Note: One successful gmin step
Trying gmin =   1.0000E-12 Note: One successful gmin step
Note: One successful source step
Supplies reduced to   0.1000% Note: One successful source step
Supplies reduced to   0.2000% Note: One successful source step
Supplies reduced to   0.3500% Note: One successful source step
Supplies reduced to   0.5750% Note: One successful source step
Supplies reduced to   0.9125% Note: One successful source step
Supplies reduced to   1.4188% Note: One successful source step
Supplies reduced to   2.1781% Note: One successful source step
Supplies reduced to   3.3172% Note: One successful source step
Supplies reduced to   5.0258% Note: One successful source step
Supplies reduced to   7.5887% Note: One successful source step
Supplies reduced to  11.4330% Supplies reduced to   7.5887% Note: One successful source step
Supplies reduced to   8.1653% Note: One successful source step
Supplies reduced to   9.0303% Note: One successful source step
Supplies reduced to  10.3278% Note: One successful source step
Supplies reduced to  12.2740% Supplies reduced to  10.3278% Note: One successful source step
Supplies reduced to  10.5224% Note: One successful source step
Supplies reduced to  10.7170% Supplies reduced to  10.5224% Warning: source stepping failed
Note: Transient op started
Note: Transient op finished successfully

Initial Transient Solution
--------------------------

Node                                   Voltage
----                                   -------
vdd                                        1.8
p2                                           0
p4                                         1.8
p1                                           0
p3                                         1.8
p5                                           0
p6                                           0
p0                                           0
p7                                           0
x1.x5.x2.net1                          1.79991
x1.net1                            0.000226862
x1.net4                                1.79997
x1.x5.x2.x1.net1                    -0.0008635
x1.x5.net2                        -0.000770195
x1.x5.net3                             1.87659
x1.x5.net1                             1.79978
x1.x5.x3.net1                      -0.00138528
x1.net2                                1.79972
x1.x5.x4.net1                          1.32334
x1.x5.x4.net2                           1.2932
x1.net3                             -0.0543856
x1.x5.fib                          -0.00322286
x1.x5.x1.net1                          1.80204
x1.x5.x1.net3                          1.79826
x1.x5.x1.net2                          1.33205
x1.x5.x1.net4                          1.92092
x1.x5.x1.net5                       0.00843106
x1.x5.x6.net1                           1.7981
x1.x5.x6.net3                           1.7996
x1.x5.x6.net2                          1.33468
x1.x5.x6.net4                         0.525282
x1.x5.x6.net5                       0.00233945
x1.x6.x2.net1                          1.79975
x1.net5                           -0.000309003
x1.net6                           -0.000256712
x1.x6.x2.x1.net1                     -0.165849
x1.x6.net2                         8.32231e-05
x1.x6.net3                             1.80001
x1.x6.net1                             1.80013
x1.x6.x3.net1                       0.00107439
x1.x6.x4.net1                          1.00253
x1.x6.x4.net2                      4.36502e-05
x1.x6.fib                              1.79946
x1.x6.x1.net1                          1.79995
x1.x6.x1.net3                       -0.0352495
x1.x6.x1.net2                        -0.129614
x1.x6.x1.net4                          1.79993
x1.x6.x1.net5                          1.33455
x1.x6.x6.net1                          1.80016
x1.x6.x6.net3                       -0.0588598
x1.x6.x6.net2                        -0.228361
x1.x6.x6.net4                          1.80002
x1.x6.x6.net5                          1.33223
x1.x7.x2.net1                          1.80012
x1.net7                                1.79996
x1.net8                              -0.037144
x1.x7.x2.x1.net1                       1.34239
x1.x7.net2                         0.000147205
x1.x7.net3                         -5.9012e-06
x1.x7.net1                             1.79982
x1.x7.x3.net1                     -0.000438692
x1.x7.x4.net1                         0.998968
x1.x7.x4.net2                        -0.168026
x1.x7.fib                              1.79981
x1.x7.x1.net1                          1.97673
x1.x7.x1.net3                          1.99556
x1.x7.x1.net2                       0.00198503
x1.x7.x1.net4                         0.391312
x1.x7.x1.net5                     -0.000515029
x1.x7.x6.net1                          1.80066
x1.x7.x6.net3                          1.96819
x1.x7.x6.net2                         0.908943
x1.x7.x6.net4                         0.390838
x1.x7.x6.net5                       0.00118626
x1.x8.x2.net1                      0.000146284
fout                                   1.80002
x1.x8.x2.x1.net1                   4.02092e-05
x1.x8.net2                             1.80028
x1.x8.net3                           -0.106207
x1.x8.net1                             1.79997
x1.x8.x3.net1                     -5.97076e-05
x1.x8.x4.net1                          1.36448
x1.x8.x4.net2                        -0.153195
x1.x8.fib                         -0.000194915
x1.x8.x1.net1                         0.399423
x1.x8.x1.net3                     -3.50442e-05
x1.x8.x1.net2                      7.98202e-05
x1.x8.x1.net4                          1.79993
x1.x8.x1.net5                        -0.210111
x1.x8.x6.net1                         0.399098
x1.x8.x6.net3                     -3.67615e-05
x1.x8.x6.net2                      0.000265047
x1.x8.x6.net4                           1.7999
x1.x8.x6.net5                        -0.201317
x1.x1.x2.net1                          1.79995
x1.x1.x2.x1.net1                       1.34519
x1.x1.net2                         -0.00054216
x1.x1.net3                           -0.240225
x1.x1.net1                             1.79981
x1.x1.x3.net1                       0.00135935
x1.net9                                1.79645
x1.x1.x4.net1                           1.3223
x1.x1.x4.net2                          1.29278
x1.net10                            -0.0610796
x1.x1.fib                           -0.0402815
x1.x1.x1.net1                         0.385337
x1.x1.x1.net3                       -0.0184939
x1.x1.x1.net2                       -0.0074222
x1.x1.x1.net4                          1.80597
x1.x1.x1.net5                        -0.246003
x1.x1.x6.net1                          1.79171
x1.x1.x6.net3                          1.78707
x1.x1.x6.net2                            1.334
x1.x1.x6.net4                         0.524512
x1.x1.x6.net5                       0.00497504
x1.x2.x2.net1                          1.79929
x1.x2.x2.x1.net1                       1.34406
x1.x2.net2                        -0.000571823
x1.x2.net3                           0.0044828
x1.x2.net1                             1.80128
x1.x2.x3.net1                        0.0051975
x1.net11                            0.00163142
x1.x2.x4.net1                           1.0578
x1.x2.x4.net2                       -0.0498804
x1.net12                           0.000210561
x1.x2.fib                              1.80071
x1.x2.x1.net1                          1.55949
x1.x2.x1.net3                          1.17344
x1.x2.x1.net2                       -0.0099158
x1.x2.x1.net4                         0.794697
x1.x2.x1.net5                     -0.000137865
x1.x2.x6.net1                          1.80032
x1.x2.x6.net3                           1.9845
x1.x2.x6.net2                         0.918782
x1.x2.x6.net4                         0.351639
x1.x2.x6.net5                     -0.000439754
x1.x3.x2.net1                          1.80118
x1.x3.x2.x1.net1                      0.928919
x1.x3.net2                         0.000126281
x1.x3.net3                             1.79966
x1.x3.net1                             1.80032
x1.x3.x3.net1                      -0.00263315
x1.net13                              0.770503
x1.x3.x4.net1                         0.573595
x1.x3.x4.net2                         -0.10032
x1.net14                           0.000122708
x1.x3.fib                              1.67149
x1.x3.x1.net1                          1.80185
x1.x3.x1.net3                         0.434898
x1.x3.x1.net2                         0.348673
x1.x3.x1.net4                          1.79952
x1.x3.x1.net5                          1.08417
x1.x3.x6.net1                          1.80013
x1.x3.x6.net3                          1.82045
x1.x3.x6.net2                         0.474455
x1.x3.x6.net4                         0.958111
x1.x3.x6.net5                      0.000156214
x1.x4.x2.net1                          1.80004
x1.x4.x2.x1.net1                      0.487579
x1.x4.net2                         1.18892e-06
x1.x4.net3                             0.81947
x1.x4.net1                                 1.8
x1.x4.x3.net1                        0.0114502
fin                                        0.9
x1.x4.x4.net1                         0.655769
x1.x4.x4.net2                     -1.24724e-07
opennet                                1.57501
x1.x4.fib                             0.342032
x1.x4.x1.net1                          1.76574
x1.x4.x1.net3                          1.75374
x1.x4.x1.net2                         0.177341
x1.x4.x1.net4                           1.2048
x1.x4.x1.net5                      3.01313e-06
x1.x4.x6.net1                              1.8
x1.x4.x6.net3                              1.8
x1.x4.x6.net2                           1.0904
x1.x4.x6.net4                          1.57512
x1.x4.x6.net5                      6.65781e-07
v1#branch                         -2.70523e-07
vdd8#branch                        2.88802e-06
vdd7#branch                       -2.70279e-08
vdd6#branch                       -4.40006e-06
vdd5#branch                       -7.85178e-06
vdd4#branch                       -2.86991e-06
vdd3#branch                       -2.46162e-07
vdd2#branch                        5.76032e-06
vdd1#branch                        1.54887e-05
vdd#branch                         1.12356e-05


No. of Data Rows : 50008

  Measurements for Transient Analysis

tdiff               =  1.000000e-07 targ=  3.680666e-07 trig=  2.680666e-07
f_out               =  1.00000e+07
n                   =  2.32000e+02

ngspice-37 done
