
Note: No compatibility mode selected!


Circuit: ** sch_path: /home/mohamed/simulations/divider_tb.sch

Doing analysis at TEMP = 27.000000 and TNOM = 27.000000

Warning: v1: no DC value, transient time 0 value used
Note: Starting dynamic gmin stepping
Trying gmin =   1.0000E-03 Note: One successful gmin step
Trying gmin =   1.0000E-04 Note: One successful gmin step
Trying gmin =   1.0000E-05 Note: One successful gmin step
Trying gmin =   1.0000E-06 Warning: Further gmin increment
Trying gmin =   5.6234E-06 Warning: Further gmin increment
Trying gmin =   8.6596E-06 Warning: Further gmin increment
Trying gmin =   9.6466E-06 Warning: Further gmin increment
Trying gmin =   9.9105E-06 Note: One successful gmin step
Trying gmin =   9.7776E-06 Note: One successful gmin step
Trying gmin =   9.5818E-06 Warning: Further gmin increment
Trying gmin =   9.7283E-06 Note: One successful gmin step
Trying gmin =   9.6548E-06 Warning: Further gmin increment
Trying gmin =   9.7099E-06 Note: One successful gmin step
Trying gmin =   9.6823E-06 Note: One successful gmin step
Trying gmin =   9.6410E-06 Warning: Further gmin increment
Trying gmin =   9.6719E-06 Note: One successful gmin step
Trying gmin =   9.6565E-06 Warning: Further gmin increment
Trying gmin =   9.6681E-06 Note: One successful gmin step
Trying gmin =   9.6623E-06 Note: One successful gmin step
Trying gmin =   9.6536E-06 Warning: Further gmin increment
Trying gmin =   9.6601E-06 Warning: Further gmin increment
Trying gmin =   9.6617E-06 Note: One successful gmin step
Trying gmin =   9.6609E-06 Note: One successful gmin step
Trying gmin =   9.6597E-06 Warning: Further gmin increment
Trying gmin =   9.6606E-06 Warning: Last gmin step failed
Warning: Dynamic gmin stepping failed
Note: Starting true gmin stepping
Trying gmin =   1.0000E-03 Note: One successful gmin step
Trying gmin =   1.0000E-04 Note: One successful gmin step
Trying gmin =   1.0000E-05 Note: One successful gmin step
Trying gmin =   3.1623E-06 Note: One successful gmin step
Trying gmin =   5.6234E-07 Note: One successful gmin step
Trying gmin =   5.6234E-08 Note: One successful gmin step
Trying gmin =   5.6234E-09 Note: One successful gmin step
Trying gmin =   5.6234E-10 Note: One successful gmin step
Trying gmin =   5.6234E-11 Note: One successful gmin step
Trying gmin =   5.6234E-12 Warning: Further gmin increment
Trying gmin =   3.1623E-11 Note: One successful gmin step
Trying gmin =   1.3335E-11 Warning: Further gmin increment
Trying gmin =   2.5483E-11 Note: One successful gmin step
Trying gmin =   1.8434E-11 Note: One successful gmin step
Trying gmin =   1.3335E-11 Note: One successful gmin step
Trying gmin =   1.1342E-11 Note: One successful gmin step
Trying gmin =   9.6466E-12 Note: One successful gmin step
Trying gmin =   8.8965E-12 Warning: Further gmin increment
Trying gmin =   9.4534E-12 Warning: Further gmin increment
Trying gmin =   9.5979E-12 Warning: Further gmin increment
Trying gmin =   9.6344E-12 Note: One successful gmin step
Trying gmin =   9.6222E-12 Warning: Further gmin increment
Trying gmin =   9.6314E-12 Warning: Further gmin increment
Trying gmin =   9.6337E-12 Note: One successful gmin step
Trying gmin =   9.6332E-12 Warning: Further gmin increment
Trying gmin =   9.6335E-12 Note: One successful gmin step
Trying gmin =   9.6331E-12 Warning: Further gmin increment
Trying gmin =   9.6334E-12 Warning: Last gmin step failed
Note: True gmin stepping completed

Initial Transient Solution
--------------------------

Node                                   Voltage
----                                   -------
vdd                                        1.8
p2                                         1.8
p4                                         1.8
p1                                           0
p3                                         1.8
p5                                           0
p6                                           0
p0                                         1.8
p7                                           0
x1.x5.x2.net1                      7.50691e-06
x1.net1                                    1.8
x1.net4                                1.56575
x1.x5.x2.x1.net1                   4.05827e-06
x1.x5.net2                                 1.8
x1.x5.net3                             1.76788
x1.x5.net1                         5.59434e-07
x1.x5.x3.net1                          1.44902
x1.net2                                    1.8
x1.x5.x4.net1                      3.73914e-07
x1.x5.x4.net2                      1.88393e-07
x1.net3                                1.76789
x1.x5.fib                           1.4458e-07
x1.x5.x1.net1                         0.352135
x1.x5.x1.net3                      1.21142e-07
x1.x5.x1.net2                      6.05709e-08
x1.x5.x1.net4                              1.8
x1.x5.x1.net5                         0.041806
x1.x5.x6.net1                         0.352135
x1.x5.x6.net3                      1.21141e-07
x1.x5.x6.net2                      6.05706e-08
x1.x5.x6.net4                              1.8
x1.x5.x6.net5                        0.0418051
x1.x6.x2.net1                              1.8
x1.net5                            7.51405e-06
x1.net6                            6.01916e-06
x1.x6.x2.x1.net1                     0.0726931
x1.x6.net2                          1.4458e-07
x1.x6.net3                             1.56568
x1.x6.net1                                 1.8
x1.x6.x3.net1                       3.4518e-06
x1.x6.x4.net1                          1.48637
x1.x6.x4.net2                      1.04494e-10
x1.x6.fib                           1.4458e-07
x1.x6.x1.net1                              1.8
x1.x6.x1.net3                              1.8
x1.x6.x1.net2                          1.45514
x1.x6.x1.net4                          1.77251
x1.x6.x1.net5                      1.25852e-10
x1.x6.x6.net1                              1.8
x1.x6.x6.net3                              1.8
x1.x6.x6.net2                          1.45514
x1.x6.x6.net4                          1.77252
x1.x6.x6.net5                       1.2586e-10
x1.x7.x2.net1                      7.46466e-06
x1.net7                                    1.8
x1.net8                                1.56614
x1.x7.x2.x1.net1                   4.03481e-06
x1.x7.net2                                 1.8
x1.x7.net3                         6.06062e-06
x1.x7.net1                                 1.8
x1.x7.x3.net1                      5.96358e-10
x1.x7.x4.net1                        0.0535504
x1.x7.x4.net2                        0.0107126
x1.x7.fib                                  1.8
x1.x7.x1.net1                          1.77253
x1.x7.x1.net3                          1.56577
x1.x7.x1.net2                      1.25887e-10
x1.x7.x1.net4                         0.529429
x1.x7.x1.net5                      3.29349e-06
x1.x7.x6.net1                          1.77255
x1.x7.x6.net3                          1.56625
x1.x7.x6.net2                      1.25946e-10
x1.x7.x6.net4                         0.529092
x1.x7.x6.net5                      3.27031e-06
x1.x8.x2.net1                              1.8
fout                               7.43918e-06
x1.x8.x2.x1.net1                   5.96378e-10
x1.x8.net2                          1.4458e-07
x1.x8.net3                             1.56638
x1.x8.net1                                 1.8
x1.x8.x3.net1                      3.41851e-06
x1.x8.x4.net1                          1.48639
x1.x8.x4.net2                      1.04463e-10
x1.x8.fib                           1.4458e-07
x1.x8.x1.net1                              1.8
x1.x8.x1.net3                              1.8
x1.x8.x1.net2                          1.45514
x1.x8.x1.net4                          1.77258
x1.x8.x1.net5                      1.25936e-10
x1.x8.x6.net1                              1.8
x1.x8.x6.net3                              1.8
x1.x8.x6.net2                          1.45514
x1.x8.x6.net4                          1.77255
x1.x8.x6.net5                      1.25907e-10
x1.x1.x2.net1                      4.18167e-07
x1.x1.x2.x1.net1                   2.10989e-07
x1.x1.net2                                 1.8
x1.x1.net3                             1.76789
x1.x1.net1                         5.60042e-07
x1.x1.x3.net1                          1.44901
x1.net9                                    1.8
x1.x1.x4.net1                      3.74323e-07
x1.x1.x4.net2                      1.88605e-07
x1.net10                               1.76777
x1.x1.fib                           1.4458e-07
x1.x1.x1.net1                         0.352135
x1.x1.x1.net3                      1.21142e-07
x1.x1.x1.net2                      6.05708e-08
x1.x1.x1.net4                              1.8
x1.x1.x1.net5                        0.0418084
x1.x1.x6.net1                         0.352135
x1.x1.x6.net3                      1.21141e-07
x1.x1.x6.net2                      6.05707e-08
x1.x1.x6.net4                              1.8
x1.x1.x6.net5                         0.041807
x1.x2.x2.net1                      4.18782e-07
x1.x2.x2.x1.net1                   2.11307e-07
x1.x2.net2                                 1.8
x1.x2.net3                         5.96658e-06
x1.x2.net1                                 1.8
x1.x2.x3.net1                      5.96357e-10
x1.net11                           7.41473e-06
x1.x2.x4.net1                        0.0414212
x1.x2.x4.net2                        0.0414212
x1.net12                           6.09986e-06
x1.x2.fib                                  1.8
x1.x2.x1.net1                          1.77259
x1.x2.x1.net3                          1.56687
x1.x2.x1.net2                       1.2602e-10
x1.x2.x1.net4                         0.528665
x1.x2.x1.net5                      3.24091e-06
x1.x2.x6.net1                           1.7725
x1.x2.x6.net3                          1.56528
x1.x2.x6.net2                      1.25828e-10
x1.x2.x6.net4                         0.529762
x1.x2.x6.net5                      3.31539e-06
x1.x3.x2.net1                              1.8
x1.x3.x2.x1.net1                     0.0726902
x1.x3.net2                          1.4458e-07
x1.x3.net3                              1.5666
x1.x3.net1                                 1.8
x1.x3.x3.net1                      3.40764e-06
x1.net13                                   1.8
x1.x3.x4.net1                          1.48639
x1.x3.x4.net2                      1.04509e-10
x1.net14                               1.56559
x1.x3.fib                           1.4458e-07
x1.x3.x1.net1                              1.8
x1.x3.x1.net3                              1.8
x1.x3.x1.net2                          1.45515
x1.x3.x1.net4                          1.77259
x1.x3.x1.net5                      1.25963e-10
x1.x3.x6.net1                              1.8
x1.x3.x6.net3                              1.8
x1.x3.x6.net2                          1.45514
x1.x3.x6.net4                          1.77248
x1.x3.x6.net5                      1.25841e-10
x1.x4.x2.net1                      7.52411e-06
x1.x4.x2.x1.net1                   4.06782e-06
x1.x4.net2                                 1.8
x1.x4.net3                                 1.8
x1.x4.net1                           0.0614494
x1.x4.x3.net1                          1.44763
fin                                        0.9
x1.x4.x4.net1                        0.0152704
x1.x4.x4.net2                       0.00761542
opennet                                    1.8
x1.x4.fib                             0.342053
x1.x4.x1.net1                         0.607838
x1.x4.x1.net3                      1.98962e-07
x1.x4.x1.net2                      3.07277e-08
x1.x4.x1.net4                              1.8
x1.x4.x1.net5                          0.26737
x1.x4.x6.net1                         0.607838
x1.x4.x6.net3                      1.98964e-07
x1.x4.x6.net2                       3.0728e-08
x1.x4.x6.net4                              1.8
x1.x4.x6.net5                         0.267369
v1#branch                                    0
vdd8#branch                                  0
vdd7#branch                                  0
vdd6#branch                                  0
vdd5#branch                                  0
vdd4#branch                                  0
vdd3#branch                                  0
vdd2#branch                                  0
vdd1#branch                                  0
vdd#branch                        -0.000131593


No. of Data Rows : 50008

  Measurements for Transient Analysis

tdiff               =  1.000000e-07 targ=  2.950944e-07 trig=  1.950944e-07
f_out               =  1.00000e+07
n                   =  2.27000e+02

ngspice-37 done
