
Note: No compatibility mode selected!


Circuit: ** sch_path: /home/mohamed/simulations/divider_tb.sch

Doing analysis at TEMP = 27.000000 and TNOM = 27.000000

Warning: v1: no DC value, transient time 0 value used
Note: Starting dynamic gmin stepping
Trying gmin =   1.0000E-03 Note: One successful gmin step
Trying gmin =   1.0000E-04 Note: One successful gmin step
Trying gmin =   1.0000E-05 Note: One successful gmin step
Trying gmin =   1.0000E-06 Warning: Further gmin increment
Trying gmin =   5.6234E-06 Warning: Further gmin increment
Trying gmin =   8.6596E-06 Note: One successful gmin step
Trying gmin =   8.0584E-06 Warning: Further gmin increment
Trying gmin =   8.5053E-06 Note: One successful gmin step
Trying gmin =   8.2788E-06 Note: One successful gmin step
Trying gmin =   7.9504E-06 Note: One successful gmin step
Trying gmin =   7.4821E-06 Warning: Further gmin increment
Trying gmin =   7.8307E-06 Note: One successful gmin step
Trying gmin =   7.6544E-06 Note: One successful gmin step
Trying gmin =   7.3974E-06 Warning: Further gmin increment
Trying gmin =   7.5893E-06 Note: One successful gmin step
Trying gmin =   7.4928E-06 Warning: Further gmin increment
Trying gmin =   7.5651E-06 Note: One successful gmin step
Trying gmin =   7.5288E-06 Warning: Further gmin increment
Trying gmin =   7.5560E-06 Note: One successful gmin step
Trying gmin =   7.5424E-06 Note: One successful gmin step
Trying gmin =   7.5220E-06 Note: One successful gmin step
Trying gmin =   7.4916E-06 Note: One successful gmin step
Trying gmin =   7.4462E-06 Note: One successful gmin step
Trying gmin =   7.3787E-06 Note: One successful gmin step
Trying gmin =   7.2784E-06 Note: One successful gmin step
Trying gmin =   7.1306E-06 Note: One successful gmin step
Trying gmin =   6.9146E-06 Note: One successful gmin step
Trying gmin =   6.6027E-06 Note: One successful gmin step
Trying gmin =   6.1610E-06 Note: One successful gmin step
Trying gmin =   5.5533E-06 Note: One successful gmin step
Trying gmin =   4.7522E-06 Note: One successful gmin step
Trying gmin =   3.7620E-06 Warning: Further gmin increment
Trying gmin =   4.4826E-06 Note: One successful gmin step
Trying gmin =   4.1065E-06 Note: One successful gmin step
Trying gmin =   3.6007E-06 Warning: Further gmin increment
Trying gmin =   3.9738E-06 Note: One successful gmin step
Trying gmin =   3.7827E-06 Warning: Further gmin increment
Trying gmin =   3.9251E-06 Note: One successful gmin step
Trying gmin =   3.8532E-06 Note: One successful gmin step
Trying gmin =   3.7479E-06 Warning: Further gmin increment
Trying gmin =   3.8266E-06 Note: One successful gmin step
Trying gmin =   3.7870E-06 Warning: Further gmin increment
Trying gmin =   3.8167E-06 Note: One successful gmin step
Trying gmin =   3.8018E-06 Warning: Further gmin increment
Trying gmin =   3.8130E-06 Warning: Further gmin increment
Trying gmin =   3.8158E-06 Note: One successful gmin step
Trying gmin =   3.8144E-06 Note: One successful gmin step
Trying gmin =   3.8123E-06 Warning: Further gmin increment
Trying gmin =   3.8138E-06 Note: One successful gmin step
Trying gmin =   3.8130E-06 Warning: Further gmin increment
Trying gmin =   3.8136E-06 Note: One successful gmin step
Trying gmin =   3.8133E-06 Note: One successful gmin step
Trying gmin =   3.8129E-06 Note: One successful gmin step
Trying gmin =   3.8122E-06 Note: One successful gmin step
Trying gmin =   3.8112E-06 Note: One successful gmin step
Trying gmin =   3.8098E-06 Note: One successful gmin step
Trying gmin =   3.8075E-06 Note: One successful gmin step
Trying gmin =   3.8042E-06 Note: One successful gmin step
Trying gmin =   3.7992E-06 Note: One successful gmin step
Trying gmin =   3.7917E-06 Note: One successful gmin step
Trying gmin =   3.7805E-06 Note: One successful gmin step
Trying gmin =   3.7637E-06 Note: One successful gmin step
Trying gmin =   3.7387E-06 Note: One successful gmin step
Trying gmin =   3.7015E-06 Note: One successful gmin step
Trying gmin =   3.6463E-06 Note: One successful gmin step
Trying gmin =   3.5652E-06 Note: One successful gmin step
Trying gmin =   3.4468E-06 Note: One successful gmin step
Trying gmin =   3.2766E-06 Note: One successful gmin step
Trying gmin =   3.0369E-06 Note: One successful gmin step
Trying gmin =   2.7099E-06 Note: One successful gmin step
Trying gmin =   2.2841E-06 Note: One successful gmin step
Trying gmin =   1.7676E-06 Note: One successful gmin step
Trying gmin =   1.2033E-06 Warning: Further gmin increment
Trying gmin =   1.6055E-06 Note: One successful gmin step
Trying gmin =   1.3899E-06 Warning: Further gmin increment
Trying gmin =   1.5487E-06 Note: One successful gmin step
Trying gmin =   1.4672E-06 Note: One successful gmin step
Trying gmin =   1.3528E-06 Warning: Further gmin increment
Trying gmin =   1.4377E-06 Note: One successful gmin step
Trying gmin =   1.3946E-06 Warning: Further gmin increment
Trying gmin =   1.4268E-06 Note: One successful gmin step
Trying gmin =   1.4106E-06 Warning: Further gmin increment
Trying gmin =   1.4228E-06 Warning: Further gmin increment
Trying gmin =   1.4258E-06 Note: One successful gmin step
Trying gmin =   1.4243E-06 Note: One successful gmin step
Trying gmin =   1.4220E-06 Warning: Further gmin increment
Trying gmin =   1.4237E-06 Warning: Further gmin increment
Trying gmin =   1.4241E-06 Note: One successful gmin step
Trying gmin =   1.4239E-06 Note: One successful gmin step
Trying gmin =   1.4236E-06 Warning: Further gmin increment
Trying gmin =   1.4238E-06 Note: One successful gmin step
Trying gmin =   1.4237E-06 Note: One successful gmin step
Trying gmin =   1.4235E-06 Warning: Further gmin increment
Trying gmin =   1.4237E-06 Warning: Last gmin step failed
Warning: Dynamic gmin stepping failed
Note: Starting true gmin stepping
Trying gmin =   1.0000E-03 Note: One successful gmin step
Trying gmin =   1.0000E-04 Note: One successful gmin step
Trying gmin =   3.1623E-05 Warning: Further gmin increment
Trying gmin =   7.4989E-05 Note: One successful gmin step
Trying gmin =   4.8697E-05 Warning: Further gmin increment
Trying gmin =   6.7317E-05 Note: One successful gmin step
Trying gmin =   5.7255E-05 Note: One successful gmin step
Trying gmin =   4.4910E-05 Note: One successful gmin step
Trying gmin =   3.5227E-05 Note: One successful gmin step
Trying gmin =   3.1199E-05 Note: One successful gmin step
Trying gmin =   2.6004E-05 Note: One successful gmin step
Trying gmin =   1.9787E-05 Note: One successful gmin step
Trying gmin =   1.3134E-05 Note: One successful gmin step
Trying gmin =   7.1030E-06 Note: One successful gmin step
Trying gmin =   2.8248E-06 Note: One successful gmin step
Trying gmin =   7.0845E-07 Note: One successful gmin step
Trying gmin =   8.8981E-08 Note: One successful gmin step
Trying gmin =   8.8981E-09 Note: One successful gmin step
Trying gmin =   8.8981E-10 Note: One successful gmin step
Trying gmin =   8.8981E-11 Note: One successful gmin step
Trying gmin =   8.8981E-12 Warning: Further gmin increment
Trying gmin =   5.0037E-11 Note: One successful gmin step
Trying gmin =   2.1101E-11 Note: One successful gmin step
Trying gmin =   5.7782E-12 Warning: Further gmin increment
Trying gmin =   1.5264E-11 Note: One successful gmin step
Trying gmin =   1.1042E-11 Warning: Further gmin increment
Trying gmin =   1.4077E-11 Note: One successful gmin step
Trying gmin =   1.3519E-11 Note: One successful gmin step
Trying gmin =   1.3248E-11 Warning: Further gmin increment
Trying gmin =   1.3450E-11 Warning: Further gmin increment
Trying gmin =   1.3502E-11 Note: One successful gmin step
Trying gmin =   1.3476E-11 Note: One successful gmin step
Trying gmin =   1.3450E-11 Warning: Further gmin increment
Trying gmin =   1.3470E-11 Note: One successful gmin step
Trying gmin =   1.3466E-11 Note: One successful gmin step
Trying gmin =   1.3465E-11 Note: One successful gmin step
Trying gmin =   1.3463E-11 Warning: Further gmin increment
Trying gmin =   1.3464E-11 Note: One successful gmin step
Trying gmin =   1.3464E-11 Note: One successful gmin step
Trying gmin =   1.3464E-11 Note: One successful gmin step
Trying gmin =   1.3463E-11 Note: One successful gmin step
Trying gmin =   1.3462E-11 Warning: Further gmin increment
Trying gmin =   1.3463E-11 Note: One successful gmin step
Trying gmin =   1.3462E-11 Note: One successful gmin step
Trying gmin =   1.3462E-11 Note: One successful gmin step
Trying gmin =   1.3461E-11 Warning: Last gmin step failed
Note: True gmin stepping completed

Initial Transient Solution
--------------------------

Node                                   Voltage
----                                   -------
vdd                                        1.8
p2                                           0
p4                                         1.8
p1                                           0
p3                                         1.8
p5                                           0
p6                                           0
p0                                         1.8
p7                                           0
x1.x5.x2.net1                      7.44199e-06
x1.net1                                    1.8
x1.net4                                1.56635
x1.x5.x2.x1.net1                   4.02221e-06
x1.x5.net2                                 1.8
x1.x5.net3                              1.7679
x1.x5.net1                         5.59377e-07
x1.x5.x3.net1                          1.44901
x1.net2                                    1.8
x1.x5.x4.net1                      3.73875e-07
x1.x5.x4.net2                      1.88373e-07
x1.net3                                 1.7679
x1.x5.fib                           1.4458e-07
x1.x5.x1.net1                         0.352135
x1.x5.x1.net3                      1.21141e-07
x1.x5.x1.net2                      6.05707e-08
x1.x5.x1.net4                              1.8
x1.x5.x1.net5                        0.0418075
x1.x5.x6.net1                         0.352135
x1.x5.x6.net3                      1.21141e-07
x1.x5.x6.net2                      6.05707e-08
x1.x5.x6.net4                              1.8
x1.x5.x6.net5                        0.0418079
x1.x6.x2.net1                              1.8
x1.net5                            7.47999e-06
x1.net6                            5.95111e-06
x1.x6.x2.x1.net1                     0.0726919
x1.x6.net2                          1.4458e-07
x1.x6.net3                               1.566
x1.x6.net1                                 1.8
x1.x6.x3.net1                      3.43666e-06
x1.x6.x4.net1                          1.48639
x1.x6.x4.net2                      1.04446e-10
x1.x6.fib                           1.4458e-07
x1.x6.x1.net1                              1.8
x1.x6.x1.net3                              1.8
x1.x6.x1.net2                          1.45514
x1.x6.x1.net4                          1.77251
x1.x6.x1.net5                       1.2589e-10
x1.x6.x6.net1                              1.8
x1.x6.x6.net3                              1.8
x1.x6.x6.net2                          1.45515
x1.x6.x6.net4                          1.77257
x1.x6.x6.net5                      1.25933e-10
x1.x7.x2.net1                      7.51468e-06
x1.net7                                    1.8
x1.net8                                1.56566
x1.x7.x2.x1.net1                   4.06257e-06
x1.x7.net2                                 1.8
x1.x7.net3                         6.00556e-06
x1.x7.net1                                 1.8
x1.x7.x3.net1                      5.96357e-10
x1.x7.x4.net1                        0.0535503
x1.x7.x4.net2                        0.0107126
x1.x7.fib                                  1.8
x1.x7.x1.net1                          1.77257
x1.x7.x1.net3                          1.56641
x1.x7.x1.net2                      1.25965e-10
x1.x7.x1.net4                         0.528982
x1.x7.x1.net5                       3.2627e-06
x1.x7.x6.net1                          1.77262
x1.x7.x6.net3                          1.56705
x1.x7.x6.net2                      1.26041e-10
x1.x7.x6.net4                         0.528545
x1.x7.x6.net5                      3.23224e-06
x1.x8.x2.net1                              1.8
fout                               7.35081e-06
x1.x8.x2.x1.net1                   5.96376e-10
x1.x8.net2                          1.4458e-07
x1.x8.net3                             1.56721
x1.x8.net1                                 1.8
x1.x8.x3.net1                      3.37921e-06
x1.x8.x4.net1                           1.4864
x1.x8.x4.net2                      1.04503e-10
x1.x8.fib                           1.4458e-07
x1.x8.x1.net1                              1.8
x1.x8.x1.net3                              1.8
x1.x8.x1.net2                          1.45514
x1.x8.x1.net4                          1.77262
x1.x8.x1.net5                      1.26036e-10
x1.x8.x6.net1                              1.8
x1.x8.x6.net3                              1.8
x1.x8.x6.net2                          1.45514
x1.x8.x6.net4                          1.77252
x1.x8.x6.net5                       1.2585e-10
x1.x1.x2.net1                      4.18109e-07
x1.x1.x2.x1.net1                   2.10959e-07
x1.x1.net2                                 1.8
x1.x1.net3                             1.76791
x1.x1.net1                         5.58926e-07
x1.x1.x3.net1                          1.44902
x1.net9                                    1.8
x1.x1.x4.net1                      3.73571e-07
x1.x1.x4.net2                      1.88216e-07
x1.net10                               1.76798
x1.x1.fib                           1.4458e-07
x1.x1.x1.net1                         0.352135
x1.x1.x1.net3                      1.21141e-07
x1.x1.x1.net2                      6.05706e-08
x1.x1.x1.net4                              1.8
x1.x1.x1.net5                        0.0418076
x1.x1.x6.net1                         0.352135
x1.x1.x6.net3                      1.21141e-07
x1.x1.x6.net2                      6.05706e-08
x1.x1.x6.net4                              1.8
x1.x1.x6.net5                        0.0418127
x1.x2.x2.net1                      4.17653e-07
x1.x2.x2.x1.net1                   2.10724e-07
x1.x2.net2                                 1.8
x1.x2.net3                         5.98649e-06
x1.x2.net1                                 1.8
x1.x2.x3.net1                      5.96357e-10
x1.net11                           7.42917e-06
x1.x2.x4.net1                        0.0535528
x1.x2.x4.net2                        0.0107151
x1.net12                           6.05749e-06
x1.x2.fib                                  1.8
x1.x2.x1.net1                           1.7726
x1.x2.x1.net3                          1.56664
x1.x2.x1.net2                      1.25991e-10
x1.x2.x1.net4                         0.528828
x1.x2.x1.net5                      3.25203e-06
x1.x2.x6.net1                          1.77253
x1.x2.x6.net3                           1.5658
x1.x2.x6.net2                      1.25891e-10
x1.x2.x6.net4                         0.529404
x1.x2.x6.net5                      3.29174e-06
x1.x3.x2.net1                              1.8
x1.x3.x2.x1.net1                     0.0726917
x1.x3.net2                          1.4458e-07
x1.x3.net3                             1.56647
x1.x3.net1                                 1.8
x1.x3.x3.net1                      3.41406e-06
x1.net13                                   1.8
x1.x3.x4.net1                          1.48639
x1.x3.x4.net2                       1.0438e-10
x1.net14                               1.56715
x1.x3.fib                           1.4458e-07
x1.x3.x1.net1                              1.8
x1.x3.x1.net3                              1.8
x1.x3.x1.net2                          1.45514
x1.x3.x1.net4                          1.77256
x1.x3.x1.net5                      1.25947e-10
x1.x3.x6.net1                              1.8
x1.x3.x6.net3                              1.8
x1.x3.x6.net2                          1.45515
x1.x3.x6.net4                          1.77261
x1.x3.x6.net5                      1.26029e-10
x1.x4.x2.net1                      7.35633e-06
x1.x4.x2.x1.net1                   3.97465e-06
x1.x4.net2                                 1.8
x1.x4.net3                                 1.8
x1.x4.net1                           0.0614494
x1.x4.x3.net1                          1.44763
fin                                        0.9
x1.x4.x4.net1                        0.0152704
x1.x4.x4.net2                       0.00761542
opennet                                    1.8
x1.x4.fib                             0.342053
x1.x4.x1.net1                         0.607838
x1.x4.x1.net3                      1.98963e-07
x1.x4.x1.net2                      3.07277e-08
x1.x4.x1.net4                              1.8
x1.x4.x1.net5                         0.267367
x1.x4.x6.net1                         0.607838
x1.x4.x6.net3                      1.98963e-07
x1.x4.x6.net2                      3.07277e-08
x1.x4.x6.net4                              1.8
x1.x4.x6.net5                         0.267368
v1#branch                                    0
vdd8#branch                                  0
vdd7#branch                                  0
vdd6#branch                                  0
vdd5#branch                                  0
vdd4#branch                                  0
vdd3#branch                                  0
vdd2#branch                                  0
vdd1#branch                                  0
vdd#branch                        -0.000131592


No. of Data Rows : 50008

  Measurements for Transient Analysis

tdiff               =  1.000000e-07 targ=  3.003914e-07 trig=  2.003914e-07
f_out               =  1.00000e+07
n                   =  2.31000e+02

ngspice-37 done
