
Note: No compatibility mode selected!


Circuit: ** sch_path: /home/mohamed/simulations/divider_tb.sch

Doing analysis at TEMP = 27.000000 and TNOM = 27.000000

Warning: v1: no DC value, transient time 0 value used
Note: Starting dynamic gmin stepping
Trying gmin =   1.0000E-03 Note: One successful gmin step
Trying gmin =   1.0000E-04 Note: One successful gmin step
Trying gmin =   1.0000E-05 Note: One successful gmin step
Trying gmin =   1.0000E-06 Warning: Further gmin increment
Trying gmin =   5.6234E-06 Warning: Further gmin increment
Trying gmin =   8.6596E-06 Warning: Further gmin increment
Trying gmin =   9.6466E-06 Warning: Further gmin increment
Trying gmin =   9.9105E-06 Note: One successful gmin step
Trying gmin =   9.7776E-06 Note: One successful gmin step
Trying gmin =   9.5818E-06 Warning: Further gmin increment
Trying gmin =   9.7283E-06 Note: One successful gmin step
Trying gmin =   9.6548E-06 Warning: Further gmin increment
Trying gmin =   9.7099E-06 Note: One successful gmin step
Trying gmin =   9.6823E-06 Note: One successful gmin step
Trying gmin =   9.6410E-06 Warning: Further gmin increment
Trying gmin =   9.6719E-06 Note: One successful gmin step
Trying gmin =   9.6565E-06 Warning: Further gmin increment
Trying gmin =   9.6681E-06 Note: One successful gmin step
Trying gmin =   9.6623E-06 Note: One successful gmin step
Trying gmin =   9.6536E-06 Warning: Further gmin increment
Trying gmin =   9.6601E-06 Warning: Further gmin increment
Trying gmin =   9.6617E-06 Note: One successful gmin step
Trying gmin =   9.6609E-06 Note: One successful gmin step
Trying gmin =   9.6597E-06 Note: One successful gmin step
Trying gmin =   9.6591E-06 Note: One successful gmin step
Trying gmin =   9.6582E-06 Note: One successful gmin step
Trying gmin =   9.6568E-06 Note: One successful gmin step
Trying gmin =   9.6547E-06 Note: One successful gmin step
Trying gmin =   9.6516E-06 Note: One successful gmin step
Trying gmin =   9.6470E-06 Note: One successful gmin step
Trying gmin =   9.6400E-06 Note: One successful gmin step
Trying gmin =   9.6296E-06 Note: One successful gmin step
Trying gmin =   9.6140E-06 Note: One successful gmin step
Trying gmin =   9.6062E-06 Warning: Further gmin increment
Trying gmin =   9.6120E-06 Note: One successful gmin step
Trying gmin =   9.6091E-06 Note: One successful gmin step
Trying gmin =   9.6047E-06 Note: One successful gmin step
Trying gmin =   9.6025E-06 Note: One successful gmin step
Trying gmin =   9.5993E-06 Note: One successful gmin step
Trying gmin =   9.5943E-06 Note: One successful gmin step
Trying gmin =   9.5869E-06 Note: One successful gmin step
Trying gmin =   9.5759E-06 Note: One successful gmin step
Trying gmin =   9.5593E-06 Note: One successful gmin step
Trying gmin =   9.5345E-06 Note: One successful gmin step
Trying gmin =   9.5221E-06 Note: One successful gmin step
Trying gmin =   9.5036E-06 Note: One successful gmin step
Trying gmin =   9.4758E-06 Note: One successful gmin step
Trying gmin =   9.4343E-06 Note: One successful gmin step
Trying gmin =   9.3725E-06 Note: One successful gmin step
Trying gmin =   9.2804E-06 Note: One successful gmin step
Trying gmin =   9.1441E-06 Note: One successful gmin step
Trying gmin =   8.9433E-06 Note: One successful gmin step
Trying gmin =   8.6503E-06 Note: One successful gmin step
Trying gmin =   8.2287E-06 Note: One successful gmin step
Trying gmin =   7.6346E-06 Note: One successful gmin step
Trying gmin =   6.8229E-06 Warning: Further gmin increment
Trying gmin =   7.4230E-06 Warning: Further gmin increment
Trying gmin =   7.5811E-06 Note: One successful gmin step
Trying gmin =   7.5017E-06 Warning: Further gmin increment
Trying gmin =   7.5612E-06 Warning: Further gmin increment
Trying gmin =   7.5762E-06 Note: One successful gmin step
Trying gmin =   7.5687E-06 Note: One successful gmin step
Trying gmin =   7.5575E-06 Note: One successful gmin step
Trying gmin =   7.5407E-06 Note: One successful gmin step
Trying gmin =   7.5156E-06 Note: One successful gmin step
Trying gmin =   7.4781E-06 Note: One successful gmin step
Trying gmin =   7.4222E-06 Note: One successful gmin step
Trying gmin =   7.3391E-06 Note: One successful gmin step
Trying gmin =   7.2163E-06 Note: One successful gmin step
Trying gmin =   7.0358E-06 Note: One successful gmin step
Trying gmin =   6.7736E-06 Note: One successful gmin step
Trying gmin =   6.3985E-06 Note: One successful gmin step
Trying gmin =   5.8744E-06 Note: One successful gmin step
Trying gmin =   5.1676E-06 Note: One successful gmin step
Trying gmin =   4.2637E-06 Note: One successful gmin step
Trying gmin =   3.1954E-06 Warning: Further gmin increment
Trying gmin =   3.9671E-06 Note: One successful gmin step
Trying gmin =   3.5604E-06 Warning: Further gmin increment
Trying gmin =   3.8612E-06 Note: One successful gmin step
Trying gmin =   3.7078E-06 Warning: Further gmin increment
Trying gmin =   3.8223E-06 Note: One successful gmin step
Trying gmin =   3.7646E-06 Warning: Further gmin increment
Trying gmin =   3.8078E-06 Warning: Further gmin increment
Trying gmin =   3.8186E-06 Note: One successful gmin step
Trying gmin =   3.8132E-06 Note: One successful gmin step
Trying gmin =   3.8051E-06 Warning: Further gmin increment
Trying gmin =   3.8112E-06 Note: One successful gmin step
Trying gmin =   3.8081E-06 Note: One successful gmin step
Trying gmin =   3.8035E-06 Note: One successful gmin step
Trying gmin =   3.7967E-06 Note: One successful gmin step
Trying gmin =   3.7864E-06 Note: One successful gmin step
Trying gmin =   3.7711E-06 Note: One successful gmin step
Trying gmin =   3.7482E-06 Note: One successful gmin step
Trying gmin =   3.7141E-06 Note: One successful gmin step
Trying gmin =   3.6635E-06 Note: One successful gmin step
Trying gmin =   3.5890E-06 Note: One successful gmin step
Trying gmin =   3.4800E-06 Note: One successful gmin step
Trying gmin =   3.3227E-06 Note: One successful gmin step
Trying gmin =   3.1000E-06 Note: One successful gmin step
Trying gmin =   2.7936E-06 Note: One successful gmin step
Trying gmin =   2.3899E-06 Note: One successful gmin step
Trying gmin =   1.8910E-06 Note: One successful gmin step
Trying gmin =   1.3309E-06 Warning: Further gmin increment
Trying gmin =   1.7320E-06 Warning: Further gmin increment
Trying gmin =   1.8499E-06 Warning: Further gmin increment
Trying gmin =   1.8806E-06 Note: One successful gmin step
Trying gmin =   1.8652E-06 Warning: Further gmin increment
Trying gmin =   1.8767E-06 Warning: Further gmin increment
Trying gmin =   1.8796E-06 Note: One successful gmin step
Trying gmin =   1.8782E-06 Note: One successful gmin step
Trying gmin =   1.8760E-06 Warning: Further gmin increment
Trying gmin =   1.8776E-06 Note: One successful gmin step
Trying gmin =   1.8768E-06 Note: One successful gmin step
Trying gmin =   1.8756E-06 Warning: Further gmin increment
Trying gmin =   1.8765E-06 Note: One successful gmin step
Trying gmin =   1.8761E-06 Warning: Further gmin increment
Trying gmin =   1.8764E-06 Note: One successful gmin step
Trying gmin =   1.8762E-06 Note: One successful gmin step
Trying gmin =   1.8761E-06 Note: One successful gmin step
Trying gmin =   1.8759E-06 Note: One successful gmin step
Trying gmin =   1.8756E-06 Note: One successful gmin step
Trying gmin =   1.8753E-06 Note: One successful gmin step
Trying gmin =   1.8747E-06 Note: One successful gmin step
Trying gmin =   1.8738E-06 Note: One successful gmin step
Trying gmin =   1.8725E-06 Warning: Further gmin increment
Trying gmin =   1.8735E-06 Warning: Further gmin increment
Trying gmin =   1.8737E-06 Warning: Last gmin step failed
Warning: Dynamic gmin stepping failed
Note: Starting true gmin stepping
Trying gmin =   1.0000E-03 Note: One successful gmin step
Trying gmin =   1.0000E-04 Note: One successful gmin step
Trying gmin =   1.0000E-05 Note: One successful gmin step
Trying gmin =   3.1623E-06 Note: One successful gmin step
Trying gmin =   5.6234E-07 Note: One successful gmin step
Trying gmin =   5.6234E-08 Note: One successful gmin step
Trying gmin =   5.6234E-09 Note: One successful gmin step
Trying gmin =   5.6234E-10 Note: One successful gmin step
Trying gmin =   5.6234E-11 Note: One successful gmin step
Trying gmin =   5.6234E-12 Warning: Further gmin increment
Trying gmin =   3.1623E-11 Note: One successful gmin step
Trying gmin =   1.3335E-11 Warning: Further gmin increment
Trying gmin =   2.5483E-11 Note: One successful gmin step
Trying gmin =   1.8434E-11 Note: One successful gmin step
Trying gmin =   1.5679E-11 Warning: Further gmin increment
Trying gmin =   1.7703E-11 Note: One successful gmin step
Trying gmin =   1.6660E-11 Warning: Further gmin increment
Trying gmin =   1.7436E-11 Note: One successful gmin step
Trying gmin =   1.7044E-11 Note: One successful gmin step
Trying gmin =   1.6472E-11 Note: One successful gmin step
Trying gmin =   1.5649E-11 Warning: Further gmin increment
Trying gmin =   1.6262E-11 Note: One successful gmin step
Trying gmin =   1.6158E-11 Note: One successful gmin step
Trying gmin =   1.6055E-11 Warning: Further gmin increment
Trying gmin =   1.6132E-11 Note: One successful gmin step
Trying gmin =   1.6119E-11 Warning: Further gmin increment
Trying gmin =   1.6129E-11 Note: One successful gmin step
Trying gmin =   1.6128E-11 Note: One successful gmin step
Trying gmin =   1.6126E-11 Warning: Further gmin increment
Trying gmin =   1.6127E-11 Note: One successful gmin step
Trying gmin =   1.6127E-11 Note: One successful gmin step
Trying gmin =   1.6126E-11 Warning: Further gmin increment
Trying gmin =   1.6127E-11 Warning: Last gmin step failed
Note: True gmin stepping completed

Initial Transient Solution
--------------------------

Node                                   Voltage
----                                   -------
vdd                                        1.8
p2                                         1.8
p4                                           0
p1                                           0
p3                                           0
p5                                           0
p6                                           0
p0                                         1.8
p7                                           0
x1.x5.x2.net1                      7.34392e-06
x1.net1                                    1.8
x1.net4                                1.56727
x1.x5.x2.x1.net1                   3.96776e-06
x1.x5.net2                                 1.8
x1.x5.net3                         6.02654e-06
x1.x5.net1                                 1.8
x1.x5.x3.net1                      5.96357e-10
x1.net2                            7.48365e-06
x1.x5.x4.net1                        0.0535477
x1.x5.x4.net2                        0.0107124
x1.net3                             5.9755e-06
x1.x5.fib                                  1.8
x1.x5.x1.net1                          1.77257
x1.x5.x1.net3                          1.56617
x1.x5.x1.net2                      1.25935e-10
x1.x5.x1.net4                         0.529151
x1.x5.x1.net5                      3.27443e-06
x1.x5.x6.net1                          1.77259
x1.x5.x6.net3                          1.56677
x1.x5.x6.net2                      1.26007e-10
x1.x5.x6.net4                         0.528738
x1.x5.x6.net5                       3.2459e-06
x1.x6.x2.net1                              1.8
x1.net5                            7.41637e-06
x1.net6                             6.0036e-06
x1.x6.x2.x1.net1                     0.0726886
x1.x6.net2                          1.4458e-07
x1.x6.net3                             1.56659
x1.x6.net1                                 1.8
x1.x6.x3.net1                      3.40838e-06
x1.x6.x4.net1                          1.48638
x1.x6.x4.net2                      1.04369e-10
x1.x6.fib                           1.4458e-07
x1.x6.x1.net1                              1.8
x1.x6.x1.net3                              1.8
x1.x6.x1.net2                          1.45514
x1.x6.x1.net4                          1.77261
x1.x6.x1.net5                      1.25961e-10
x1.x6.x6.net1                              1.8
x1.x6.x6.net3                              1.8
x1.x6.x6.net2                          1.45514
x1.x6.x6.net4                          1.77263
x1.x6.x6.net5                      1.26043e-10
x1.x7.x2.net1                      7.51908e-06
x1.net7                                    1.8
x1.net8                                1.56563
x1.x7.x2.x1.net1                   4.06502e-06
x1.x7.net2                                 1.8
x1.x7.net3                          5.9779e-06
x1.x7.net1                                 1.8
x1.x7.x3.net1                      5.96357e-10
x1.x7.x4.net1                        0.0535543
x1.x7.x4.net2                        0.0107132
x1.x7.fib                                  1.8
x1.x7.x1.net1                          1.77258
x1.x7.x1.net3                          1.56674
x1.x7.x1.net2                      1.26003e-10
x1.x7.x1.net4                         0.528757
x1.x7.x1.net5                      3.24723e-06
x1.x7.x6.net1                          1.77261
x1.x7.x6.net3                          1.56643
x1.x7.x6.net2                      1.25967e-10
x1.x7.x6.net4                         0.528969
x1.x7.x6.net5                       3.2616e-06
x1.x8.x2.net1                              1.8
fout                               7.42235e-06
x1.x8.x2.x1.net1                   5.96377e-10
x1.x8.net2                          1.4458e-07
x1.x8.net3                             1.56653
x1.x8.net1                                 1.8
x1.x8.x3.net1                      3.41104e-06
x1.x8.x4.net1                          1.48641
x1.x8.x4.net2                      1.04507e-10
x1.x8.fib                           1.4458e-07
x1.x8.x1.net1                              1.8
x1.x8.x1.net3                              1.8
x1.x8.x1.net2                          1.45513
x1.x8.x1.net4                          1.77258
x1.x8.x1.net5                      1.25954e-10
x1.x8.x6.net1                              1.8
x1.x8.x6.net3                              1.8
x1.x8.x6.net2                          1.45515
x1.x8.x6.net4                           1.7725
x1.x8.x6.net5                      1.25846e-10
x1.x1.x2.net1                              1.8
x1.x1.x2.x1.net1                     0.0726868
x1.x1.net2                          1.4458e-07
x1.x1.net3                             1.56596
x1.x1.net1                                 1.8
x1.x1.x3.net1                      3.43829e-06
x1.net9                                    1.8
x1.x1.x4.net1                           1.4864
x1.x1.x4.net2                      1.04489e-10
x1.net10                               1.56584
x1.x1.fib                           1.4458e-07
x1.x1.x1.net1                              1.8
x1.x1.x1.net3                              1.8
x1.x1.x1.net2                          1.45515
x1.x1.x1.net4                          1.77252
x1.x1.x1.net5                      1.25886e-10
x1.x1.x6.net1                              1.8
x1.x1.x6.net3                              1.8
x1.x1.x6.net2                          1.45514
x1.x1.x6.net4                          1.77256
x1.x1.x6.net5                      1.25871e-10
x1.x2.x2.net1                       7.4966e-06
x1.x2.x2.x1.net1                   4.05254e-06
x1.x2.net2                                 1.8
x1.x2.net3                         5.95227e-06
x1.x2.net1                                 1.8
x1.x2.x3.net1                      5.96356e-10
x1.net11                           7.49676e-06
x1.x2.x4.net1                        0.0414078
x1.x2.x4.net2                        0.0414078
x1.net12                           6.06281e-06
x1.x2.fib                                  1.8
x1.x2.x1.net1                          1.77259
x1.x2.x1.net3                          1.56704
x1.x2.x1.net2                       1.2604e-10
x1.x2.x1.net4                         0.528549
x1.x2.x1.net5                      3.23291e-06
x1.x2.x6.net1                          1.77255
x1.x2.x6.net3                          1.56573
x1.x2.x6.net2                      1.25883e-10
x1.x2.x6.net4                         0.529453
x1.x2.x6.net5                       3.2947e-06
x1.x3.x2.net1                              1.8
x1.x3.x2.x1.net1                      0.072688
x1.x3.net2                          1.4458e-07
x1.x3.net3                             1.56584
x1.x3.net1                                 1.8
x1.x3.x3.net1                      3.44412e-06
x1.net13                                   1.8
x1.x3.x4.net1                           1.4864
x1.x3.x4.net2                      1.04453e-10
x1.net14                               1.56627
x1.x3.fib                           1.4458e-07
x1.x3.x1.net1                              1.8
x1.x3.x1.net3                              1.8
x1.x3.x1.net2                          1.45513
x1.x3.x1.net4                          1.77252
x1.x3.x1.net5                      1.25872e-10
x1.x3.x6.net1                              1.8
x1.x3.x6.net3                              1.8
x1.x3.x6.net2                          1.45514
x1.x3.x6.net4                          1.77256
x1.x3.x6.net5                      1.25923e-10
x1.x4.x2.net1                      7.45036e-06
x1.x4.x2.x1.net1                   4.02686e-06
x1.x4.net2                                 1.8
x1.x4.net3                                 1.8
x1.x4.net1                           0.0614494
x1.x4.x3.net1                          1.44763
fin                                        0.9
x1.x4.x4.net1                        0.0152704
x1.x4.x4.net2                       0.00761542
opennet                                    1.8
x1.x4.fib                             0.342053
x1.x4.x1.net1                         0.607838
x1.x4.x1.net3                      1.98964e-07
x1.x4.x1.net2                      3.07279e-08
x1.x4.x1.net4                              1.8
x1.x4.x1.net5                         0.267369
x1.x4.x6.net1                         0.607838
x1.x4.x6.net3                      1.98964e-07
x1.x4.x6.net2                      3.07279e-08
x1.x4.x6.net4                              1.8
x1.x4.x6.net5                          0.26737
v1#branch                                    0
vdd8#branch                                  0
vdd7#branch                                  0
vdd6#branch                                  0
vdd5#branch                                  0
vdd4#branch                                  0
vdd3#branch                                  0
vdd2#branch                                  0
vdd1#branch                                  0
vdd#branch                        -0.000131646


No. of Data Rows : 50008

  Measurements for Transient Analysis

tdiff               =  1.000000e-07 targ=  3.135868e-07 trig=  2.135868e-07
f_out               =  1.00000e+07
n                   =  2.51000e+02

ngspice-37 done
