Warning: m=xx on .subckt line will override multiplier m hierarchy!

 Reference value :  0.00000e+00
Note: Compatibility modes selected: hs a


Circuit: ** test bench for ring

option SCALE: Scale is set to 1e-06 for instance and model parameters
Doing analysis at TEMP = -40.000000 and TNOM = -40.000000


No. of Data Rows : 1
l.xring.l1#branch = 0.000000e+00
m.xring.xm1.msky130_fd_pr__pfet_01v8#body = 1.980000e+00
m.xring.xm1.msky130_fd_pr__pfet_01v8#dbody = 1.980000e+00
m.xring.xm1.msky130_fd_pr__pfet_01v8#sbody = 1.980000e+00
m.xring.xm2.msky130_fd_pr__nfet_01v8#body = 7.541656e-10
m.xring.xm2.msky130_fd_pr__nfet_01v8#dbody = 3.990859e-10
m.xring.xm2.msky130_fd_pr__nfet_01v8#sbody = 3.770831e-10
m.xring.xm3.msky130_fd_pr__nfet_01v8#body = 3.101863e-10
m.xring.xm3.msky130_fd_pr__nfet_01v8#dbody = 1.781495e-10
m.xring.xm3.msky130_fd_pr__nfet_01v8#sbody = 1.550936e-10
m.xring.xm4.msky130_fd_pr__pfet_01v8#body = 1.980000e+00
m.xring.xm4.msky130_fd_pr__pfet_01v8#dbody = 1.980000e+00
m.xring.xm4.msky130_fd_pr__pfet_01v8#sbody = 1.980000e+00
m.xring.xm5.msky130_fd_pr__nfet_01v8#body = 8.084182e-12
m.xring.xm5.msky130_fd_pr__nfet_01v8#dbody = 2.009818e-11
m.xring.xm5.msky130_fd_pr__nfet_01v8#sbody = 4.042600e-12
m.xring.xm11.msky130_fd_pr__pfet_01v8#body = 1.980000e+00
m.xring.xm11.msky130_fd_pr__pfet_01v8#dbody = 1.980000e+00
m.xring.xm11.msky130_fd_pr__pfet_01v8#sbody = 1.980000e+00
out = 6.422635e-01
vdd = 1.980000e+00
vdd#branch = -1.77772e-03
vin = 8.801368e-01
xring.net1 = 8.801368e-01
xring.net2 = 8.801368e-01
xring.net3 = 8.801368e-01
xring.net4 = 9.222756e-01
xring.xr6.ra = 8.801368e-01
Doing analysis at TEMP = -40.000000 and TNOM = -40.000000

Using transient initial conditions
 Reference value :  9.50654e-07 Reference value :  2.02490e-06 Reference value :  3.11463e-06 Reference value :  4.38002e-06ERROR: (internal)  This operation is not defined for display type PrinterOnly.
Can't open viewport for graphics.

No. of Data Rows : 2529
Note: No ".plot", ".print", or ".fourier" lines; no simulations run
tperiod             =  1.000956e-07 targ=  2.059358e-06 trig=  1.959262e-06
freq = 9.990449e+00
