Warning: m=xx on .subckt line will override multiplier m hierarchy!

 Reference value :  0.00000e+00
Note: Compatibility modes selected: hs a


Circuit: ** test bench for ring

option SCALE: Scale is set to 1e-06 for instance and model parameters
Doing analysis at TEMP = -40.000000 and TNOM = -40.000000


No. of Data Rows : 1
l.xring.l1#branch = 0.000000e+00
m.xring.xm1.msky130_fd_pr__pfet_01v8#body = 1.620000e+00
m.xring.xm1.msky130_fd_pr__pfet_01v8#dbody = 1.620000e+00
m.xring.xm1.msky130_fd_pr__pfet_01v8#sbody = 1.620000e+00
m.xring.xm2.msky130_fd_pr__nfet_01v8#body = 1.859100e-11
m.xring.xm2.msky130_fd_pr__nfet_01v8#dbody = 2.830730e-11
m.xring.xm2.msky130_fd_pr__nfet_01v8#sbody = 9.295532e-12
m.xring.xm3.msky130_fd_pr__nfet_01v8#body = 6.543802e-12
m.xring.xm3.msky130_fd_pr__nfet_01v8#dbody = 1.635929e-11
m.xring.xm3.msky130_fd_pr__nfet_01v8#sbody = 3.271990e-12
m.xring.xm4.msky130_fd_pr__pfet_01v8#body = 1.620000e+00
m.xring.xm4.msky130_fd_pr__pfet_01v8#dbody = 1.620000e+00
m.xring.xm4.msky130_fd_pr__pfet_01v8#sbody = 1.620000e+00
m.xring.xm5.msky130_fd_pr__nfet_01v8#body = 4.388395e-09
m.xring.xm5.msky130_fd_pr__nfet_01v8#dbody = 2.234689e-09
m.xring.xm5.msky130_fd_pr__nfet_01v8#sbody = 2.194198e-09
m.xring.xm11.msky130_fd_pr__pfet_01v8#body = 1.620000e+00
m.xring.xm11.msky130_fd_pr__pfet_01v8#dbody = 1.620000e+00
m.xring.xm11.msky130_fd_pr__pfet_01v8#sbody = 1.620000e+00
out = 1.619636e+00
vdd = 1.620000e+00
vdd#branch = -1.56116e-04
vin = 7.604730e-01
xring.net1 = 7.604730e-01
xring.net2 = 7.604730e-01
xring.net3 = 7.604730e-01
xring.net4 = 5.234988e-01
xring.xr6.ra = 7.604730e-01
Doing analysis at TEMP = -40.000000 and TNOM = -40.000000

Using transient initial conditions
 Reference value :  1.69173e-06 Reference value :  3.29173e-06 Reference value :  4.57373e-06ERROR: (internal)  This operation is not defined for display type PrinterOnly.
Can't open viewport for graphics.

No. of Data Rows : 2519
Note: No ".plot", ".print", or ".fourier" lines; no simulations run
tperiod             =  1.001176e-07 targ=  2.254354e-06 trig=  2.154236e-06
freq = 9.988254e+00
