Warning: m=xx on .subckt line will override multiplier m hierarchy!

 Reference value :  0.00000e+00
Note: Compatibility modes selected: hs a


Circuit: ** test bench for ring

option SCALE: Scale is set to 1e-06 for instance and model parameters
Doing analysis at TEMP = -40.000000 and TNOM = -40.000000


No. of Data Rows : 1
l.xring.l1#branch = 0.000000e+00
m.xring.xm1.msky130_fd_pr__pfet_01v8#body = 1.800000e+00
m.xring.xm1.msky130_fd_pr__pfet_01v8#dbody = 1.800000e+00
m.xring.xm1.msky130_fd_pr__pfet_01v8#sbody = 1.800000e+00
m.xring.xm2.msky130_fd_pr__nfet_01v8#body = 6.636348e-11
m.xring.xm2.msky130_fd_pr__nfet_01v8#dbody = 5.339439e-11
m.xring.xm2.msky130_fd_pr__nfet_01v8#sbody = 3.318189e-11
m.xring.xm3.msky130_fd_pr__nfet_01v8#body = 2.787389e-11
m.xring.xm3.msky130_fd_pr__nfet_01v8#dbody = 3.565780e-11
m.xring.xm3.msky130_fd_pr__nfet_01v8#sbody = 1.393713e-11
m.xring.xm11.msky130_fd_pr__pfet_01v8#body = 1.800000e+00
m.xring.xm11.msky130_fd_pr__pfet_01v8#dbody = 1.800000e+00
m.xring.xm11.msky130_fd_pr__pfet_01v8#sbody = 1.800000e+00
vdd = 1.800000e+00
vdd#branch = -3.03004e-04
vin = 8.085120e-01
vout = 8.688418e-01
xring.net1 = 8.085120e-01
xring.net2 = 8.085120e-01
xring.net3 = 8.085120e-01
xring.net4 = 8.085120e-01
xring.xr1.ra = 8.085120e-01
xring.xr16.xsky130_fd_pr__res_xhigh_po_2p85.ra = 8.085120e-01
Doing analysis at TEMP = -40.000000 and TNOM = -40.000000

Using transient initial conditions
 Reference value :  1.87253e-06 Reference value :  3.64253e-06ERROR: (internal)  This operation is not defined for display type PrinterOnly.
Can't open viewport for graphics.

No. of Data Rows : 2016
Note: No ".plot", ".print", or ".fourier" lines; no simulations run
tperiod             =  9.987302e-08 targ=  1.696864e-06 trig=  1.596991e-06
freq = 1.001271e-02
