Warning: m=xx on .subckt line will override multiplier m hierarchy!

 Reference value :  0.00000e+00
Note: Compatibility modes selected: hs a


Circuit: ** test bench for ring

option SCALE: Scale is set to 1e-06 for instance and model parameters
Doing analysis at TEMP = 125.000000 and TNOM = 125.000000


No. of Data Rows : 1
l.xring.l1#branch = 0.000000e+00
m.xring.xm1.msky130_fd_pr__pfet_01v8#body = 1.620000e+00
m.xring.xm1.msky130_fd_pr__pfet_01v8#dbody = 1.620000e+00
m.xring.xm1.msky130_fd_pr__pfet_01v8#sbody = 1.620000e+00
m.xring.xm2.msky130_fd_pr__nfet_01v8#body = 2.713663e-09
m.xring.xm2.msky130_fd_pr__nfet_01v8#dbody = 6.714094e-09
m.xring.xm2.msky130_fd_pr__nfet_01v8#sbody = 1.357854e-09
m.xring.xm3.msky130_fd_pr__nfet_01v8#body = 1.039884e-09
m.xring.xm3.msky130_fd_pr__nfet_01v8#dbody = 1.924353e-09
m.xring.xm3.msky130_fd_pr__nfet_01v8#sbody = 5.203080e-10
m.xring.xm4.msky130_fd_pr__pfet_01v8#body = 1.620000e+00
m.xring.xm4.msky130_fd_pr__pfet_01v8#dbody = 1.620000e+00
m.xring.xm4.msky130_fd_pr__pfet_01v8#sbody = 1.620000e+00
m.xring.xm5.msky130_fd_pr__nfet_01v8#body = 8.666389e-10
m.xring.xm5.msky130_fd_pr__nfet_01v8#dbody = 2.166106e-09
m.xring.xm5.msky130_fd_pr__nfet_01v8#sbody = 4.338110e-10
m.xring.xm11.msky130_fd_pr__pfet_01v8#body = 1.620000e+00
m.xring.xm11.msky130_fd_pr__pfet_01v8#dbody = 1.620000e+00
m.xring.xm11.msky130_fd_pr__pfet_01v8#sbody = 1.620000e+00
out = 7.079142e-02
vdd = 1.620000e+00
vdd#branch = -1.06616e-03
vin = 8.042312e-01
xring.net1 = 8.042312e-01
xring.net2 = 8.042312e-01
xring.net3 = 8.042312e-01
xring.net4 = 9.870207e-01
xring.xr6.ra = 8.042312e-01
Doing analysis at TEMP = 125.000000 and TNOM = 125.000000

Using transient initial conditions
 Reference value :  1.76158e-06 Reference value :  3.55958e-06ERROR: (internal)  This operation is not defined for display type PrinterOnly.
Can't open viewport for graphics.

No. of Data Rows : 2519
Note: No ".plot", ".print", or ".fourier" lines; no simulations run
tperiod             =  1.001229e-07 targ=  2.265693e-06 trig=  2.165570e-06
freq = 9.987725e+00
