Warning: m=xx on .subckt line will override multiplier m hierarchy!

 Reference value :  0.00000e+00
Note: Compatibility modes selected: hs a


Circuit: ** test bench for ring

option SCALE: Scale is set to 1e-06 for instance and model parameters
Doing analysis at TEMP = 125.000000 and TNOM = 125.000000


No. of Data Rows : 1
l.xring.l1#branch = 0.000000e+00
m.xring.xm1.msky130_fd_pr__pfet_01v8#body = 1.980000e+00
m.xring.xm1.msky130_fd_pr__pfet_01v8#dbody = 1.980000e+00
m.xring.xm1.msky130_fd_pr__pfet_01v8#sbody = 1.980000e+00
m.xring.xm2.msky130_fd_pr__nfet_01v8#body = 3.709749e-09
m.xring.xm2.msky130_fd_pr__nfet_01v8#dbody = 7.215269e-09
m.xring.xm2.msky130_fd_pr__nfet_01v8#sbody = 1.857452e-09
m.xring.xm3.msky130_fd_pr__nfet_01v8#body = 4.694415e-08
m.xring.xm3.msky130_fd_pr__nfet_01v8#dbody = 2.488403e-08
m.xring.xm3.msky130_fd_pr__nfet_01v8#sbody = 2.347295e-08
m.xring.xm4.msky130_fd_pr__pfet_01v8#body = 1.980000e+00
m.xring.xm4.msky130_fd_pr__pfet_01v8#dbody = 1.980000e+00
m.xring.xm4.msky130_fd_pr__pfet_01v8#sbody = 1.980000e+00
m.xring.xm5.msky130_fd_pr__nfet_01v8#body = 8.276782e-10
m.xring.xm5.msky130_fd_pr__nfet_01v8#dbody = 2.068394e-09
m.xring.xm5.msky130_fd_pr__nfet_01v8#sbody = 4.146411e-10
m.xring.xm11.msky130_fd_pr__pfet_01v8#body = 1.980000e+00
m.xring.xm11.msky130_fd_pr__pfet_01v8#dbody = 1.980000e+00
m.xring.xm11.msky130_fd_pr__pfet_01v8#sbody = 1.980000e+00
out = 6.355780e-02
vdd = 1.980000e+00
vdd#branch = -2.41796e-03
vin = 9.295472e-01
xring.net1 = 9.295472e-01
xring.net2 = 9.295472e-01
xring.net3 = 9.295472e-01
xring.net4 = 1.288971e+00
xring.xr6.ra = 9.295472e-01
Doing analysis at TEMP = 125.000000 and TNOM = 125.000000

Using transient initial conditions
 Reference value :  1.71725e-06 Reference value :  3.68125e-06ERROR: (internal)  This operation is not defined for display type PrinterOnly.
Can't open viewport for graphics.

No. of Data Rows : 2519
Note: No ".plot", ".print", or ".fourier" lines; no simulations run
tperiod             =  1.000948e-07 targ=  2.165675e-06 trig=  2.065580e-06
freq = 9.990529e+00
