Warning: m=xx on .subckt line will override multiplier m hierarchy!

 Reference value :  0.00000e+00
Note: Compatibility modes selected: hs a


Circuit: ** test bench for ring

option SCALE: Scale is set to 1e-06 for instance and model parameters
Doing analysis at TEMP = 125.000000 and TNOM = 125.000000


No. of Data Rows : 1
l.xring.l1#branch = 0.000000e+00
m.xring.xm1.msky130_fd_pr__pfet_01v8#body = 1.800000e+00
m.xring.xm1.msky130_fd_pr__pfet_01v8#dbody = 1.800000e+00
m.xring.xm1.msky130_fd_pr__pfet_01v8#sbody = 1.800000e+00
m.xring.xm2.msky130_fd_pr__nfet_01v8#body = 2.884771e-09
m.xring.xm2.msky130_fd_pr__nfet_01v8#dbody = 6.801192e-09
m.xring.xm2.msky130_fd_pr__nfet_01v8#sbody = 1.444109e-09
m.xring.xm3.msky130_fd_pr__nfet_01v8#body = 6.368732e-09
m.xring.xm3.msky130_fd_pr__nfet_01v8#dbody = 4.592670e-09
m.xring.xm3.msky130_fd_pr__nfet_01v8#sbody = 3.184964e-09
m.xring.xm4.msky130_fd_pr__pfet_01v8#body = 1.800000e+00
m.xring.xm4.msky130_fd_pr__pfet_01v8#dbody = 1.800000e+00
m.xring.xm4.msky130_fd_pr__pfet_01v8#sbody = 1.800000e+00
m.xring.xm5.msky130_fd_pr__nfet_01v8#body = 8.182277e-10
m.xring.xm5.msky130_fd_pr__nfet_01v8#dbody = 2.044943e-09
m.xring.xm5.msky130_fd_pr__nfet_01v8#sbody = 4.097407e-10
m.xring.xm11.msky130_fd_pr__pfet_01v8#body = 1.800000e+00
m.xring.xm11.msky130_fd_pr__pfet_01v8#dbody = 1.800000e+00
m.xring.xm11.msky130_fd_pr__pfet_01v8#sbody = 1.800000e+00
out = 6.198308e-02
vdd = 1.800000e+00
vdd#branch = -1.67233e-03
vin = 8.659984e-01
xring.net1 = 8.659984e-01
xring.net2 = 8.659984e-01
xring.net3 = 8.659984e-01
xring.net4 = 1.142754e+00
xring.xr6.ra = 8.659984e-01
Doing analysis at TEMP = 125.000000 and TNOM = 125.000000

Using transient initial conditions
 Reference value :  1.82546e-06 Reference value :  3.27546e-06 Reference value :  4.94946e-06ERROR: (internal)  This operation is not defined for display type PrinterOnly.
Can't open viewport for graphics.

No. of Data Rows : 2519
Note: No ".plot", ".print", or ".fourier" lines; no simulations run
tperiod             =  1.001728e-07 targ=  2.165535e-06 trig=  2.065363e-06
freq = 9.982750e+00
