Warning: m=xx on .subckt line will override multiplier m hierarchy!

 Reference value :  0.00000e+00
Note: Compatibility modes selected: hs a


Circuit: ** test bench for ring

option SCALE: Scale is set to 1e-06 for instance and model parameters
Doing analysis at TEMP = 125.000000 and TNOM = 125.000000


No. of Data Rows : 1
l.xring.l1#branch = 0.000000e+00
m.xring.xm1.msky130_fd_pr__pfet_01v8#body = 1.980000e+00
m.xring.xm1.msky130_fd_pr__pfet_01v8#dbody = 1.980000e+00
m.xring.xm1.msky130_fd_pr__pfet_01v8#sbody = 1.980000e+00
m.xring.xm2.msky130_fd_pr__nfet_01v8#body = 2.057008e-09
m.xring.xm2.msky130_fd_pr__nfet_01v8#dbody = 4.541619e-09
m.xring.xm2.msky130_fd_pr__nfet_01v8#sbody = 1.030304e-09
m.xring.xm3.msky130_fd_pr__nfet_01v8#body = 1.834043e-10
m.xring.xm3.msky130_fd_pr__nfet_01v8#dbody = 4.391206e-10
m.xring.xm3.msky130_fd_pr__nfet_01v8#sbody = 9.185419e-11
m.xring.xm11.msky130_fd_pr__pfet_01v8#body = 1.980000e+00
m.xring.xm11.msky130_fd_pr__pfet_01v8#dbody = 1.980000e+00
m.xring.xm11.msky130_fd_pr__pfet_01v8#sbody = 1.980000e+00
vdd = 1.980000e+00
vdd#branch = -1.09681e-03
vin = 9.102068e-01
vout = 9.198114e-01
xring.net1 = 9.102068e-01
xring.net2 = 9.102068e-01
xring.net3 = 9.102068e-01
xring.net4 = 9.102068e-01
xring.xr1.ra = 9.102068e-01
xring.xr16.xsky130_fd_pr__res_xhigh_po_2p85.ra = 9.102068e-01
Doing analysis at TEMP = 125.000000 and TNOM = 125.000000

Using transient initial conditions
 Reference value :  1.75413e-06 Reference value :  3.80413e-06ERROR: (internal)  This operation is not defined for display type PrinterOnly.
Can't open viewport for graphics.

No. of Data Rows : 2016
Note: No ".plot", ".print", or ".fourier" lines; no simulations run
tperiod             =  9.988294e-08 targ=  1.694680e-06 trig=  1.594797e-06
freq = 1.001172e-02
