Warning: m=xx on .subckt line will override multiplier m hierarchy!

 Reference value :  0.00000e+00
Note: Compatibility modes selected: hs a


Circuit: ** test bench for ring

option SCALE: Scale is set to 1e-06 for instance and model parameters
Doing analysis at TEMP = 27.000000 and TNOM = 27.000000


No. of Data Rows : 1
l.xring.l1#branch = 0.000000e+00
m.xring.xm1.msky130_fd_pr__pfet_01v8#body = 1.800000e+00
m.xring.xm1.msky130_fd_pr__pfet_01v8#dbody = 1.800000e+00
m.xring.xm1.msky130_fd_pr__pfet_01v8#sbody = 1.800000e+00
m.xring.xm2.msky130_fd_pr__nfet_01v8#body = 1.620543e-10
m.xring.xm2.msky130_fd_pr__nfet_01v8#dbody = 1.024425e-10
m.xring.xm2.msky130_fd_pr__nfet_01v8#sbody = 8.102754e-11
m.xring.xm3.msky130_fd_pr__nfet_01v8#body = 1.728159e-10
m.xring.xm3.msky130_fd_pr__nfet_01v8#dbody = 1.096513e-10
m.xring.xm3.msky130_fd_pr__nfet_01v8#sbody = 8.640835e-11
m.xring.xm4.msky130_fd_pr__pfet_01v8#body = 1.800000e+00
m.xring.xm4.msky130_fd_pr__pfet_01v8#dbody = 1.800000e+00
m.xring.xm4.msky130_fd_pr__pfet_01v8#sbody = 1.800000e+00
m.xring.xm5.msky130_fd_pr__nfet_01v8#body = 2.951213e-12
m.xring.xm5.msky130_fd_pr__nfet_01v8#dbody = 7.377538e-12
m.xring.xm5.msky130_fd_pr__nfet_01v8#sbody = 1.476097e-12
m.xring.xm11.msky130_fd_pr__pfet_01v8#body = 1.800000e+00
m.xring.xm11.msky130_fd_pr__pfet_01v8#dbody = 1.800000e+00
m.xring.xm11.msky130_fd_pr__pfet_01v8#sbody = 1.800000e+00
out = 2.281516e-01
vdd = 1.800000e+00
vdd#branch = -1.32742e-03
vin = 8.370817e-01
xring.net1 = 8.370817e-01
xring.net2 = 8.370817e-01
xring.net3 = 8.370817e-01
xring.net4 = 9.246966e-01
xring.xr6.ra = 8.370817e-01
Doing analysis at TEMP = 27.000000 and TNOM = 27.000000

Using transient initial conditions
 Reference value :  1.75387e-06 Reference value :  3.30562e-06 Reference value :  4.92592e-06ERROR: (internal)  This operation is not defined for display type PrinterOnly.
Can't open viewport for graphics.

No. of Data Rows : 2523
Note: No ".plot", ".print", or ".fourier" lines; no simulations run
tperiod             =  1.000950e-07 targ=  2.162158e-06 trig=  2.062063e-06
freq = 9.990509e+00
