Warning: m=xx on .subckt line will override multiplier m hierarchy!

 Reference value :  0.00000e+00
Note: Compatibility modes selected: hs a


Circuit: ** test bench for ring

option SCALE: Scale is set to 1e-06 for instance and model parameters
Doing analysis at TEMP = 27.000000 and TNOM = 27.000000


No. of Data Rows : 1
l.xring.l1#branch = 0.000000e+00
m.xring.xm1.msky130_fd_pr__pfet_01v8#body = 1.620000e+00
m.xring.xm1.msky130_fd_pr__pfet_01v8#dbody = 1.620000e+00
m.xring.xm1.msky130_fd_pr__pfet_01v8#sbody = 1.620000e+00
m.xring.xm2.msky130_fd_pr__nfet_01v8#body = 3.143315e-11
m.xring.xm2.msky130_fd_pr__nfet_01v8#dbody = 3.563264e-11
m.xring.xm2.msky130_fd_pr__nfet_01v8#sbody = 1.571673e-11
m.xring.xm3.msky130_fd_pr__nfet_01v8#body = 9.990757e-12
m.xring.xm3.msky130_fd_pr__nfet_01v8#dbody = 2.349290e-11
m.xring.xm3.msky130_fd_pr__nfet_01v8#sbody = 4.995576e-12
m.xring.xm4.msky130_fd_pr__pfet_01v8#body = 1.620000e+00
m.xring.xm4.msky130_fd_pr__pfet_01v8#dbody = 1.620000e+00
m.xring.xm4.msky130_fd_pr__pfet_01v8#sbody = 1.620000e+00
m.xring.xm5.msky130_fd_pr__nfet_01v8#body = 5.166684e-09
m.xring.xm5.msky130_fd_pr__nfet_01v8#dbody = 2.610592e-09
m.xring.xm5.msky130_fd_pr__nfet_01v8#sbody = 2.583342e-09
m.xring.xm11.msky130_fd_pr__pfet_01v8#body = 1.620000e+00
m.xring.xm11.msky130_fd_pr__pfet_01v8#dbody = 1.620000e+00
m.xring.xm11.msky130_fd_pr__pfet_01v8#sbody = 1.620000e+00
out = 1.082066e+00
vdd = 1.620000e+00
vdd#branch = -5.70239e-04
vin = 7.771040e-01
xring.net1 = 7.771040e-01
xring.net2 = 7.771040e-01
xring.net3 = 7.771040e-01
xring.net4 = 7.348557e-01
xring.xr6.ra = 7.771040e-01
Doing analysis at TEMP = 27.000000 and TNOM = 27.000000

Using transient initial conditions
 Reference value :  1.16684e-06 Reference value :  2.27870e-06 Reference value :  3.41870e-06 Reference value :  4.44844e-06ERROR: (internal)  This operation is not defined for display type PrinterOnly.
Can't open viewport for graphics.

No. of Data Rows : 2519
Note: No ".plot", ".print", or ".fourier" lines; no simulations run
tperiod             =  1.001055e-07 targ=  2.161567e-06 trig=  2.061462e-06
freq = 9.989461e+00
