Warning: m=xx on .subckt line will override multiplier m hierarchy!

 Reference value :  0.00000e+00
Note: Compatibility modes selected: hs a


Circuit: ** test bench for ring

option SCALE: Scale is set to 1e-06 for instance and model parameters
Doing analysis at TEMP = 27.000000 and TNOM = 27.000000


No. of Data Rows : 1
l.xring.l1#branch = 0.000000e+00
m.xring.xm1.msky130_fd_pr__pfet_01v8#body = 1.980000e+00
m.xring.xm1.msky130_fd_pr__pfet_01v8#dbody = 1.980000e+00
m.xring.xm1.msky130_fd_pr__pfet_01v8#sbody = 1.980000e+00
m.xring.xm2.msky130_fd_pr__nfet_01v8#body = 7.519767e-10
m.xring.xm2.msky130_fd_pr__nfet_01v8#dbody = 3.988711e-10
m.xring.xm2.msky130_fd_pr__nfet_01v8#sbody = 3.759890e-10
m.xring.xm3.msky130_fd_pr__nfet_01v8#body = 7.758552e-09
m.xring.xm3.msky130_fd_pr__nfet_01v8#dbody = 3.907540e-09
m.xring.xm3.msky130_fd_pr__nfet_01v8#sbody = 3.879276e-09
m.xring.xm4.msky130_fd_pr__pfet_01v8#body = 1.980000e+00
m.xring.xm4.msky130_fd_pr__pfet_01v8#dbody = 1.980000e+00
m.xring.xm4.msky130_fd_pr__pfet_01v8#sbody = 1.980000e+00
m.xring.xm5.msky130_fd_pr__nfet_01v8#body = 1.068791e-12
m.xring.xm5.msky130_fd_pr__nfet_01v8#dbody = 2.671420e-12
m.xring.xm5.msky130_fd_pr__nfet_01v8#sbody = 5.349514e-13
m.xring.xm11.msky130_fd_pr__pfet_01v8#body = 1.980000e+00
m.xring.xm11.msky130_fd_pr__pfet_01v8#dbody = 1.980000e+00
m.xring.xm11.msky130_fd_pr__pfet_01v8#sbody = 1.980000e+00
out = 7.831343e-02
vdd = 1.980000e+00
vdd#branch = -2.07241e-03
vin = 8.957833e-01
xring.net1 = 8.957833e-01
xring.net2 = 8.957833e-01
xring.net3 = 8.957833e-01
xring.net4 = 1.125553e+00
xring.xr6.ra = 8.957833e-01
Doing analysis at TEMP = 27.000000 and TNOM = 27.000000

Using transient initial conditions
 Reference value :  1.75590e-06 Reference value :  3.65986e-06ERROR: (internal)  This operation is not defined for display type PrinterOnly.
Can't open viewport for graphics.

No. of Data Rows : 2519
Note: No ".plot", ".print", or ".fourier" lines; no simulations run
tperiod             =  1.000951e-07 targ=  2.062331e-06 trig=  1.962236e-06
freq = 9.990499e+00
