Warning: m=xx on .subckt line will override multiplier m hierarchy!

 Reference value :  0.00000e+00
Note: Compatibility modes selected: hs a


Circuit: ** test bench for ring

option SCALE: Scale is set to 1e-06 for instance and model parameters
Doing analysis at TEMP = -40.000000 and TNOM = -40.000000


No. of Data Rows : 1
l.xring.l1#branch = 0.000000e+00
m.xring.xm1.msky130_fd_pr__pfet_01v8#body = 1.980000e+00
m.xring.xm1.msky130_fd_pr__pfet_01v8#dbody = 1.980000e+00
m.xring.xm1.msky130_fd_pr__pfet_01v8#sbody = 1.980000e+00
m.xring.xm2.msky130_fd_pr__nfet_01v8#body = 5.669382e-10
m.xring.xm2.msky130_fd_pr__nfet_01v8#dbody = 3.069751e-10
m.xring.xm2.msky130_fd_pr__nfet_01v8#sbody = 2.834694e-10
m.xring.xm3.msky130_fd_pr__nfet_01v8#body = 2.446691e-07
m.xring.xm3.msky130_fd_pr__nfet_01v8#dbody = 1.223794e-07
m.xring.xm3.msky130_fd_pr__nfet_01v8#sbody = 1.223345e-07
m.xring.xm11.msky130_fd_pr__pfet_01v8#body = 1.980000e+00
m.xring.xm11.msky130_fd_pr__pfet_01v8#dbody = 1.980000e+00
m.xring.xm11.msky130_fd_pr__pfet_01v8#sbody = 1.980000e+00
vdd = 1.980000e+00
vdd#branch = -5.20963e-04
vin = 9.402498e-01
vout = 1.794324e+00
xring.net1 = 9.402498e-01
xring.net2 = 9.402498e-01
xring.net3 = 9.402498e-01
xring.net4 = 9.402498e-01
xring.xr1.ra = 9.402498e-01
xring.xr16.xsky130_fd_pr__res_xhigh_po_2p85.ra = 9.402498e-01
Doing analysis at TEMP = -40.000000 and TNOM = -40.000000

Using transient initial conditions
 Reference value :  1.15841e-06 Reference value :  2.86441e-06ERROR: (internal)  This operation is not defined for display type PrinterOnly.
Can't open viewport for graphics.

No. of Data Rows : 2016
Note: No ".plot", ".print", or ".fourier" lines; no simulations run
tperiod             =  9.979509e-08 targ=  1.695187e-06 trig=  1.595392e-06
freq = 1.002053e-02
