Warning: m=xx on .subckt line will override multiplier m hierarchy!

 Reference value :  0.00000e+00
Note: Compatibility modes selected: hs a


Circuit: ** test bench for ring

option SCALE: Scale is set to 1e-06 for instance and model parameters
Doing analysis at TEMP = -40.000000 and TNOM = -40.000000


No. of Data Rows : 1
l.xring.l1#branch = 0.000000e+00
m.xring.xm1.msky130_fd_pr__pfet_01v8#body = 1.800000e+00
m.xring.xm1.msky130_fd_pr__pfet_01v8#dbody = 1.800000e+00
m.xring.xm1.msky130_fd_pr__pfet_01v8#sbody = 1.800000e+00
m.xring.xm2.msky130_fd_pr__nfet_01v8#body = 1.610724e-10
m.xring.xm2.msky130_fd_pr__nfet_01v8#dbody = 1.021678e-10
m.xring.xm2.msky130_fd_pr__nfet_01v8#sbody = 8.053631e-11
m.xring.xm3.msky130_fd_pr__nfet_01v8#body = 1.490188e-08
m.xring.xm3.msky130_fd_pr__nfet_01v8#dbody = 7.481972e-09
m.xring.xm3.msky130_fd_pr__nfet_01v8#sbody = 7.450940e-09
m.xring.xm4.msky130_fd_pr__pfet_01v8#body = 1.800000e+00
m.xring.xm4.msky130_fd_pr__pfet_01v8#dbody = 1.800000e+00
m.xring.xm4.msky130_fd_pr__pfet_01v8#sbody = 1.800000e+00
m.xring.xm5.msky130_fd_pr__nfet_01v8#body = 3.168761e-14
m.xring.xm5.msky130_fd_pr__nfet_01v8#dbody = 7.920226e-14
m.xring.xm5.msky130_fd_pr__nfet_01v8#sbody = 1.586058e-14
m.xring.xm11.msky130_fd_pr__pfet_01v8#body = 1.800000e+00
m.xring.xm11.msky130_fd_pr__pfet_01v8#dbody = 1.800000e+00
m.xring.xm11.msky130_fd_pr__pfet_01v8#sbody = 1.800000e+00
out = 2.534991e-03
vdd = 1.800000e+00
vdd#branch = -4.46596e-04
vin = 8.652676e-01
xring.net1 = 8.652676e-01
xring.net2 = 8.652676e-01
xring.net3 = 8.652676e-01
xring.net4 = 1.241303e+00
xring.xr6.ra = 8.652676e-01
Doing analysis at TEMP = -40.000000 and TNOM = -40.000000

Using transient initial conditions
 Reference value :  1.89023e-06 Reference value :  3.45223e-06ERROR: (internal)  This operation is not defined for display type PrinterOnly.
Can't open viewport for graphics.

No. of Data Rows : 2520
Note: No ".plot", ".print", or ".fourier" lines; no simulations run
tperiod             =  1.000921e-07 targ=  2.069081e-06 trig=  1.968989e-06
freq = 9.990798e+00
