Warning: m=xx on .subckt line will override multiplier m hierarchy!

 Reference value :  0.00000e+00
Note: Compatibility modes selected: hs a


Circuit: ** test bench for ring

option SCALE: Scale is set to 1e-06 for instance and model parameters
Doing analysis at TEMP = 125.000000 and TNOM = 125.000000


No. of Data Rows : 1
l.xring.l1#branch = 0.000000e+00
m.xring.xm1.msky130_fd_pr__pfet_01v8#body = 1.620000e+00
m.xring.xm1.msky130_fd_pr__pfet_01v8#dbody = 1.620000e+00
m.xring.xm1.msky130_fd_pr__pfet_01v8#sbody = 1.620000e+00
m.xring.xm2.msky130_fd_pr__nfet_01v8#body = 2.710082e-09
m.xring.xm2.msky130_fd_pr__nfet_01v8#dbody = 6.725800e-09
m.xring.xm2.msky130_fd_pr__nfet_01v8#sbody = 1.356000e-09
m.xring.xm3.msky130_fd_pr__nfet_01v8#body = 5.143884e-08
m.xring.xm3.msky130_fd_pr__nfet_01v8#dbody = 2.714621e-08
m.xring.xm3.msky130_fd_pr__nfet_01v8#sbody = 2.571963e-08
m.xring.xm4.msky130_fd_pr__pfet_01v8#body = 1.620000e+00
m.xring.xm4.msky130_fd_pr__pfet_01v8#dbody = 1.620000e+00
m.xring.xm4.msky130_fd_pr__pfet_01v8#sbody = 1.620000e+00
m.xring.xm5.msky130_fd_pr__nfet_01v8#body = 1.026570e-10
m.xring.xm5.msky130_fd_pr__nfet_01v8#dbody = 2.565976e-10
m.xring.xm5.msky130_fd_pr__nfet_01v8#sbody = 5.137332e-11
m.xring.xm11.msky130_fd_pr__pfet_01v8#body = 1.620000e+00
m.xring.xm11.msky130_fd_pr__pfet_01v8#dbody = 1.620000e+00
m.xring.xm11.msky130_fd_pr__pfet_01v8#sbody = 1.620000e+00
out = 4.377182e-03
vdd = 1.620000e+00
vdd#branch = -6.89706e-04
vin = 8.484757e-01
xring.net1 = 8.484757e-01
xring.net2 = 8.484757e-01
xring.net3 = 8.484757e-01
xring.net4 = 1.386506e+00
xring.xr6.ra = 8.484757e-01
Doing analysis at TEMP = 125.000000 and TNOM = 125.000000

Using transient initial conditions
 Reference value :  9.98861e-07 Reference value :  1.99086e-06 Reference value :  3.03486e-06 Reference value :  4.03286e-06ERROR: (internal)  This operation is not defined for display type PrinterOnly.
Can't open viewport for graphics.

No. of Data Rows : 2519
Note: No ".plot", ".print", or ".fourier" lines; no simulations run
tperiod             =  1.001016e-07 targ=  2.175623e-06 trig=  2.075522e-06
freq = 9.989850e+00
