Warning: m=xx on .subckt line will override multiplier m hierarchy!

 Reference value :  0.00000e+00
Note: Compatibility modes selected: hs a


Circuit: ** test bench for ring

option SCALE: Scale is set to 1e-06 for instance and model parameters
Doing analysis at TEMP = 125.000000 and TNOM = 125.000000


No. of Data Rows : 1
l.xring.l1#branch = 0.000000e+00
m.xring.xm1.msky130_fd_pr__pfet_01v8#body = 1.980000e+00
m.xring.xm1.msky130_fd_pr__pfet_01v8#dbody = 1.980000e+00
m.xring.xm1.msky130_fd_pr__pfet_01v8#sbody = 1.980000e+00
m.xring.xm2.msky130_fd_pr__nfet_01v8#body = 3.472961e-09
m.xring.xm2.msky130_fd_pr__nfet_01v8#dbody = 7.110888e-09
m.xring.xm2.msky130_fd_pr__nfet_01v8#sbody = 1.738775e-09
m.xring.xm3.msky130_fd_pr__nfet_01v8#body = 4.939138e-07
m.xring.xm3.msky130_fd_pr__nfet_01v8#dbody = 2.483891e-07
m.xring.xm3.msky130_fd_pr__nfet_01v8#sbody = 2.469575e-07
m.xring.xm4.msky130_fd_pr__pfet_01v8#body = 1.980000e+00
m.xring.xm4.msky130_fd_pr__pfet_01v8#dbody = 1.980000e+00
m.xring.xm4.msky130_fd_pr__pfet_01v8#sbody = 1.980000e+00
m.xring.xm5.msky130_fd_pr__nfet_01v8#body = 3.857935e-10
m.xring.xm5.msky130_fd_pr__nfet_01v8#dbody = 9.642453e-10
m.xring.xm5.msky130_fd_pr__nfet_01v8#sbody = 1.931353e-10
m.xring.xm11.msky130_fd_pr__pfet_01v8#body = 1.980000e+00
m.xring.xm11.msky130_fd_pr__pfet_01v8#dbody = 1.980000e+00
m.xring.xm11.msky130_fd_pr__pfet_01v8#sbody = 1.980000e+00
out = 1.931883e-02
vdd = 1.980000e+00
vdd#branch = -1.78088e-03
vin = 9.944052e-01
xring.net1 = 9.944052e-01
xring.net2 = 9.944052e-01
xring.net3 = 9.944052e-01
xring.net4 = 1.601813e+00
xring.xr6.ra = 9.944052e-01
Doing analysis at TEMP = 125.000000 and TNOM = 125.000000

Using transient initial conditions
 Reference value :  1.88372e-06 Reference value :  3.64772e-06ERROR: (internal)  This operation is not defined for display type PrinterOnly.
Can't open viewport for graphics.

No. of Data Rows : 2519
Note: No ".plot", ".print", or ".fourier" lines; no simulations run
tperiod             =  1.002368e-07 targ=  2.173743e-06 trig=  2.073506e-06
freq = 9.976376e+00
