Warning: m=xx on .subckt line will override multiplier m hierarchy!

 Reference value :  0.00000e+00
Note: Compatibility modes selected: hs a


Circuit: ** test bench for ring

option SCALE: Scale is set to 1e-06 for instance and model parameters
Doing analysis at TEMP = 125.000000 and TNOM = 125.000000


No. of Data Rows : 1
l.xring.l1#branch = 0.000000e+00
m.xring.xm1.msky130_fd_pr__pfet_01v8#body = 1.980000e+00
m.xring.xm1.msky130_fd_pr__pfet_01v8#dbody = 1.980000e+00
m.xring.xm1.msky130_fd_pr__pfet_01v8#sbody = 1.980000e+00
m.xring.xm2.msky130_fd_pr__nfet_01v8#body = 2.062940e-09
m.xring.xm2.msky130_fd_pr__nfet_01v8#dbody = 4.558938e-09
m.xring.xm2.msky130_fd_pr__nfet_01v8#sbody = 1.033011e-09
m.xring.xm3.msky130_fd_pr__nfet_01v8#body = 7.101177e-08
m.xring.xm3.msky130_fd_pr__nfet_01v8#dbody = 3.588282e-08
m.xring.xm3.msky130_fd_pr__nfet_01v8#sbody = 3.550597e-08
m.xring.xm11.msky130_fd_pr__pfet_01v8#body = 1.980000e+00
m.xring.xm11.msky130_fd_pr__pfet_01v8#dbody = 1.980000e+00
m.xring.xm11.msky130_fd_pr__pfet_01v8#sbody = 1.980000e+00
vdd = 1.980000e+00
vdd#branch = -9.14227e-04
vin = 9.886975e-01
vout = 1.604643e+00
xring.net1 = 9.886975e-01
xring.net2 = 9.886975e-01
xring.net3 = 9.886975e-01
xring.net4 = 9.886975e-01
xring.xr1.ra = 9.886975e-01
xring.xr16.xsky130_fd_pr__res_xhigh_po_2p85.ra = 9.886975e-01
Doing analysis at TEMP = 125.000000 and TNOM = 125.000000

Using transient initial conditions
 Reference value :  2.02800e-06 Reference value :  3.78600e-06ERROR: (internal)  This operation is not defined for display type PrinterOnly.
Can't open viewport for graphics.

No. of Data Rows : 2016
Note: No ".plot", ".print", or ".fourier" lines; no simulations run
tperiod             =  9.985600e-08 targ=  1.694559e-06 trig=  1.594703e-06
freq = 1.001442e-02
