Warning: m=xx on .subckt line will override multiplier m hierarchy!

 Reference value :  0.00000e+00
Note: Compatibility modes selected: hs a


Circuit: ** test bench for ring

option SCALE: Scale is set to 1e-06 for instance and model parameters
Doing analysis at TEMP = 27.000000 and TNOM = 27.000000


No. of Data Rows : 1
l.xring.l1#branch = 0.000000e+00
m.xring.xm1.msky130_fd_pr__pfet_01v8#body = 1.800000e+00
m.xring.xm1.msky130_fd_pr__pfet_01v8#dbody = 1.800000e+00
m.xring.xm1.msky130_fd_pr__pfet_01v8#sbody = 1.800000e+00
m.xring.xm2.msky130_fd_pr__nfet_01v8#body = 1.601576e-10
m.xring.xm2.msky130_fd_pr__nfet_01v8#dbody = 1.027050e-10
m.xring.xm2.msky130_fd_pr__nfet_01v8#sbody = 8.007916e-11
m.xring.xm3.msky130_fd_pr__nfet_01v8#body = 9.616840e-08
m.xring.xm3.msky130_fd_pr__nfet_01v8#dbody = 4.811976e-08
m.xring.xm3.msky130_fd_pr__nfet_01v8#sbody = 4.808420e-08
m.xring.xm4.msky130_fd_pr__pfet_01v8#body = 1.800000e+00
m.xring.xm4.msky130_fd_pr__pfet_01v8#dbody = 1.800000e+00
m.xring.xm4.msky130_fd_pr__pfet_01v8#sbody = 1.800000e+00
m.xring.xm5.msky130_fd_pr__nfet_01v8#body = 2.931052e-14
m.xring.xm5.msky130_fd_pr__nfet_01v8#dbody = 7.325997e-14
m.xring.xm5.msky130_fd_pr__nfet_01v8#sbody = 1.467157e-14
m.xring.xm11.msky130_fd_pr__pfet_01v8#body = 1.800000e+00
m.xring.xm11.msky130_fd_pr__pfet_01v8#dbody = 1.800000e+00
m.xring.xm11.msky130_fd_pr__pfet_01v8#sbody = 1.800000e+00
out = 1.902588e-03
vdd = 1.800000e+00
vdd#branch = -7.45191e-04
vin = 8.854680e-01
xring.net1 = 8.854680e-01
xring.net2 = 8.854680e-01
xring.net3 = 8.854680e-01
xring.net4 = 1.417465e+00
xring.xr6.ra = 8.854680e-01
Doing analysis at TEMP = 27.000000 and TNOM = 27.000000

Using transient initial conditions
 Reference value :  1.90653e-06 Reference value :  3.75253e-06ERROR: (internal)  This operation is not defined for display type PrinterOnly.
Can't open viewport for graphics.

No. of Data Rows : 2519
Note: No ".plot", ".print", or ".fourier" lines; no simulations run
tperiod             =  1.000870e-07 targ=  2.171284e-06 trig=  2.071197e-06
freq = 9.991308e+00
