Warning: m=xx on .subckt line will override multiplier m hierarchy!

 Reference value :  0.00000e+00
Note: Compatibility modes selected: hs a


Circuit: ** test bench for ring

option SCALE: Scale is set to 1e-06 for instance and model parameters
Doing analysis at TEMP = 27.000000 and TNOM = 27.000000


No. of Data Rows : 1
l.xring.l1#branch = 0.000000e+00
m.xring.xm1.msky130_fd_pr__pfet_01v8#body = 1.620000e+00
m.xring.xm1.msky130_fd_pr__pfet_01v8#dbody = 1.620000e+00
m.xring.xm1.msky130_fd_pr__pfet_01v8#sbody = 1.620000e+00
m.xring.xm2.msky130_fd_pr__nfet_01v8#body = 3.340393e-11
m.xring.xm2.msky130_fd_pr__nfet_01v8#dbody = 3.757625e-11
m.xring.xm2.msky130_fd_pr__nfet_01v8#sbody = 1.670212e-11
m.xring.xm3.msky130_fd_pr__nfet_01v8#body = 9.377786e-09
m.xring.xm3.msky130_fd_pr__nfet_01v8#dbody = 4.719971e-09
m.xring.xm3.msky130_fd_pr__nfet_01v8#sbody = 4.688893e-09
m.xring.xm4.msky130_fd_pr__pfet_01v8#body = 1.620000e+00
m.xring.xm4.msky130_fd_pr__pfet_01v8#dbody = 1.620000e+00
m.xring.xm4.msky130_fd_pr__pfet_01v8#sbody = 1.620000e+00
m.xring.xm5.msky130_fd_pr__nfet_01v8#body = 2.403343e-14
m.xring.xm5.msky130_fd_pr__nfet_01v8#dbody = 6.007339e-14
m.xring.xm5.msky130_fd_pr__nfet_01v8#sbody = 1.202691e-14
m.xring.xm11.msky130_fd_pr__pfet_01v8#body = 1.620000e+00
m.xring.xm11.msky130_fd_pr__pfet_01v8#dbody = 1.620000e+00
m.xring.xm11.msky130_fd_pr__pfet_01v8#sbody = 1.620000e+00
out = 1.558544e-03
vdd = 1.620000e+00
vdd#branch = -3.34463e-04
vin = 8.153874e-01
xring.net1 = 8.153874e-01
xring.net2 = 8.153874e-01
xring.net3 = 8.153874e-01
xring.net4 = 1.238031e+00
xring.xr6.ra = 8.153874e-01
Doing analysis at TEMP = 27.000000 and TNOM = 27.000000

Using transient initial conditions
 Reference value :  1.72615e-06 Reference value :  3.51815e-06ERROR: (internal)  This operation is not defined for display type PrinterOnly.
Can't open viewport for graphics.

No. of Data Rows : 2518
Note: No ".plot", ".print", or ".fourier" lines; no simulations run
tperiod             =  1.001086e-07 targ=  2.172945e-06 trig=  2.072837e-06
freq = 9.989152e+00
