Warning: m=xx on .subckt line will override multiplier m hierarchy!

 Reference value :  0.00000e+00
Note: Compatibility modes selected: hs a


Circuit: ** test bench for ring

option SCALE: Scale is set to 1e-06 for instance and model parameters
Doing analysis at TEMP = 27.000000 and TNOM = 27.000000


No. of Data Rows : 1
l.xring.l1#branch = 0.000000e+00
m.xring.xm1.msky130_fd_pr__pfet_01v8#body = 1.980000e+00
m.xring.xm1.msky130_fd_pr__pfet_01v8#dbody = 1.980000e+00
m.xring.xm1.msky130_fd_pr__pfet_01v8#sbody = 1.980000e+00
m.xring.xm2.msky130_fd_pr__nfet_01v8#body = 7.932360e-10
m.xring.xm2.msky130_fd_pr__nfet_01v8#dbody = 4.210350e-10
m.xring.xm2.msky130_fd_pr__nfet_01v8#sbody = 3.966186e-10
m.xring.xm3.msky130_fd_pr__nfet_01v8#body = 4.644488e-07
m.xring.xm3.msky130_fd_pr__nfet_01v8#dbody = 2.322637e-07
m.xring.xm3.msky130_fd_pr__nfet_01v8#sbody = 2.322244e-07
m.xring.xm4.msky130_fd_pr__pfet_01v8#body = 1.980000e+00
m.xring.xm4.msky130_fd_pr__pfet_01v8#dbody = 1.980000e+00
m.xring.xm4.msky130_fd_pr__pfet_01v8#sbody = 1.980000e+00
m.xring.xm5.msky130_fd_pr__nfet_01v8#body = 5.684903e-14
m.xring.xm5.msky130_fd_pr__nfet_01v8#dbody = 1.420855e-13
m.xring.xm5.msky130_fd_pr__nfet_01v8#sbody = 2.846160e-14
m.xring.xm11.msky130_fd_pr__pfet_01v8#body = 1.980000e+00
m.xring.xm11.msky130_fd_pr__pfet_01v8#dbody = 1.980000e+00
m.xring.xm11.msky130_fd_pr__pfet_01v8#sbody = 1.980000e+00
out = 3.708518e-03
vdd = 1.980000e+00
vdd#branch = -1.32620e-03
vin = 9.571081e-01
xring.net1 = 9.571081e-01
xring.net2 = 9.571081e-01
xring.net3 = 9.571081e-01
xring.net4 = 1.566136e+00
xring.xr6.ra = 9.571081e-01
Doing analysis at TEMP = 27.000000 and TNOM = 27.000000

Using transient initial conditions
 Reference value :  1.76627e-06 Reference value :  3.32027e-06 Reference value :  4.98027e-06ERROR: (internal)  This operation is not defined for display type PrinterOnly.
Can't open viewport for graphics.

No. of Data Rows : 2519
Note: No ".plot", ".print", or ".fourier" lines; no simulations run
tperiod             =  1.000838e-07 targ=  2.170773e-06 trig=  2.070689e-06
freq = 9.991627e+00
