Warning: m=xx on .subckt line will override multiplier m hierarchy!

 Reference value :  0.00000e+00
Note: Compatibility modes selected: hs a


Circuit: ** test bench for ring

option SCALE: Scale is set to 1e-06 for instance and model parameters
Doing analysis at TEMP = -40.000000 and TNOM = -40.000000


No. of Data Rows : 1
l.xring.l1#branch = 0.000000e+00
m.xring.xm1.msky130_fd_pr__pfet_01v8#body = 1.980000e+00
m.xring.xm1.msky130_fd_pr__pfet_01v8#dbody = 1.980000e+00
m.xring.xm1.msky130_fd_pr__pfet_01v8#sbody = 1.980000e+00
m.xring.xm2.msky130_fd_pr__nfet_01v8#body = 7.359552e-11
m.xring.xm2.msky130_fd_pr__nfet_01v8#dbody = 5.684717e-11
m.xring.xm2.msky130_fd_pr__nfet_01v8#sbody = 3.679787e-11
m.xring.xm3.msky130_fd_pr__nfet_01v8#body = 6.879711e-12
m.xring.xm3.msky130_fd_pr__nfet_01v8#dbody = 1.719869e-11
m.xring.xm3.msky130_fd_pr__nfet_01v8#sbody = 3.440054e-12
m.xring.xm4.msky130_fd_pr__pfet_01v8#body = 1.980000e+00
m.xring.xm4.msky130_fd_pr__pfet_01v8#dbody = 1.980000e+00
m.xring.xm4.msky130_fd_pr__pfet_01v8#sbody = 1.980000e+00
m.xring.xm5.msky130_fd_pr__nfet_01v8#body = 1.171425e-07
m.xring.xm5.msky130_fd_pr__nfet_01v8#dbody = 5.862071e-08
m.xring.xm5.msky130_fd_pr__nfet_01v8#sbody = 5.857124e-08
m.xring.xm11.msky130_fd_pr__pfet_01v8#body = 1.980000e+00
m.xring.xm11.msky130_fd_pr__pfet_01v8#dbody = 1.980000e+00
m.xring.xm11.msky130_fd_pr__pfet_01v8#sbody = 1.980000e+00
out = 1.978854e+00
vdd = 1.980000e+00
vdd#branch = -4.31228e-04
vin = 8.019800e-01
xring.net1 = 8.019800e-01
xring.net2 = 8.019800e-01
xring.net3 = 8.019800e-01
xring.net4 = 5.503612e-01
xring.xr6.ra = 8.019800e-01
Doing analysis at TEMP = -40.000000 and TNOM = -40.000000

Using transient initial conditions
 Reference value :  1.61078e-06 Reference value :  3.26414e-06 Reference value :  4.94870e-06ERROR: (internal)  This operation is not defined for display type PrinterOnly.
Can't open viewport for graphics.

No. of Data Rows : 2587
Note: No ".plot", ".print", or ".fourier" lines; no simulations run
tperiod             =  1.000985e-07 targ=  2.059525e-06 trig=  1.959426e-06
freq = 9.990160e+00
