Warning: m=xx on .subckt line will override multiplier m hierarchy!

 Reference value :  0.00000e+00
Note: Compatibility modes selected: hs a


Circuit: ** test bench for ring

option SCALE: Scale is set to 1e-06 for instance and model parameters
Doing analysis at TEMP = -40.000000 and TNOM = -40.000000


No. of Data Rows : 1
l.xring.l1#branch = 0.000000e+00
m.xring.xm1.msky130_fd_pr__pfet_01v8#body = 1.800000e+00
m.xring.xm1.msky130_fd_pr__pfet_01v8#dbody = 1.800000e+00
m.xring.xm1.msky130_fd_pr__pfet_01v8#sbody = 1.800000e+00
m.xring.xm2.msky130_fd_pr__nfet_01v8#body = 1.433177e-11
m.xring.xm2.msky130_fd_pr__nfet_01v8#dbody = 2.579832e-11
m.xring.xm2.msky130_fd_pr__nfet_01v8#sbody = 7.165911e-12
m.xring.xm3.msky130_fd_pr__nfet_01v8#body = 4.592684e-12
m.xring.xm3.msky130_fd_pr__nfet_01v8#dbody = 1.148164e-11
m.xring.xm3.msky130_fd_pr__nfet_01v8#sbody = 2.296412e-12
m.xring.xm4.msky130_fd_pr__pfet_01v8#body = 1.800000e+00
m.xring.xm4.msky130_fd_pr__pfet_01v8#dbody = 1.800000e+00
m.xring.xm4.msky130_fd_pr__pfet_01v8#sbody = 1.800000e+00
m.xring.xm5.msky130_fd_pr__nfet_01v8#body = 9.237724e-11
m.xring.xm5.msky130_fd_pr__nfet_01v8#dbody = 9.118859e-11
m.xring.xm5.msky130_fd_pr__nfet_01v8#sbody = 4.618862e-11
m.xring.xm11.msky130_fd_pr__pfet_01v8#body = 1.800000e+00
m.xring.xm11.msky130_fd_pr__pfet_01v8#dbody = 1.800000e+00
m.xring.xm11.msky130_fd_pr__pfet_01v8#sbody = 1.800000e+00
out = 1.799998e+00
vdd = 1.800000e+00
vdd#branch = -1.26190e-04
vin = 7.452982e-01
xring.net1 = 7.452982e-01
xring.net2 = 7.452982e-01
xring.net3 = 7.452982e-01
xring.net4 = 3.674145e-01
xring.xr6.ra = 7.452982e-01
Doing analysis at TEMP = -40.000000 and TNOM = -40.000000

Using transient initial conditions
 Reference value :  1.73989e-06 Reference value :  3.62700e-06ERROR: (internal)  This operation is not defined for display type PrinterOnly.
Can't open viewport for graphics.

No. of Data Rows : 2537
Note: No ".plot", ".print", or ".fourier" lines; no simulations run
tperiod             =  1.002092e-07 targ=  2.152272e-06 trig=  2.052063e-06
freq = 9.979124e+00
