Warning: m=xx on .subckt line will override multiplier m hierarchy!

 Reference value :  0.00000e+00
Note: Compatibility modes selected: hs a


Circuit: ** test bench for ring

option SCALE: Scale is set to 1e-06 for instance and model parameters
Doing analysis at TEMP = 125.000000 and TNOM = 125.000000


No. of Data Rows : 1
l.xring.l1#branch = 0.000000e+00
m.xring.xm1.msky130_fd_pr__pfet_01v8#body = 1.800000e+00
m.xring.xm1.msky130_fd_pr__pfet_01v8#dbody = 1.800000e+00
m.xring.xm1.msky130_fd_pr__pfet_01v8#sbody = 1.800000e+00
m.xring.xm2.msky130_fd_pr__nfet_01v8#body = 2.697321e-09
m.xring.xm2.msky130_fd_pr__nfet_01v8#dbody = 6.703282e-09
m.xring.xm2.msky130_fd_pr__nfet_01v8#sbody = 1.349587e-09
m.xring.xm3.msky130_fd_pr__nfet_01v8#body = 1.039658e-09
m.xring.xm3.msky130_fd_pr__nfet_01v8#dbody = 1.922047e-09
m.xring.xm3.msky130_fd_pr__nfet_01v8#sbody = 5.201770e-10
m.xring.xm4.msky130_fd_pr__pfet_01v8#body = 1.800000e+00
m.xring.xm4.msky130_fd_pr__pfet_01v8#dbody = 1.800000e+00
m.xring.xm4.msky130_fd_pr__pfet_01v8#sbody = 1.800000e+00
m.xring.xm5.msky130_fd_pr__nfet_01v8#body = 6.646696e-10
m.xring.xm5.msky130_fd_pr__nfet_01v8#dbody = 1.661352e-09
m.xring.xm5.msky130_fd_pr__nfet_01v8#sbody = 3.326566e-10
m.xring.xm11.msky130_fd_pr__pfet_01v8#body = 1.800000e+00
m.xring.xm11.msky130_fd_pr__pfet_01v8#dbody = 1.800000e+00
m.xring.xm11.msky130_fd_pr__pfet_01v8#sbody = 1.800000e+00
out = 4.202663e-02
vdd = 1.800000e+00
vdd#branch = -9.06076e-04
vin = 7.860749e-01
xring.net1 = 7.860749e-01
xring.net2 = 7.860749e-01
xring.net3 = 7.860749e-01
xring.net4 = 9.867976e-01
xring.xr6.ra = 7.860749e-01
Doing analysis at TEMP = 125.000000 and TNOM = 125.000000

Using transient initial conditions
 Reference value :  1.86575e-06 Reference value :  3.53204e-06ERROR: (internal)  This operation is not defined for display type PrinterOnly.
Can't open viewport for graphics.

No. of Data Rows : 2559
Note: No ".plot", ".print", or ".fourier" lines; no simulations run
tperiod             =  1.001580e-07 targ=  2.166435e-06 trig=  2.066277e-06
freq = 9.984225e+00
