Warning: m=xx on .subckt line will override multiplier m hierarchy!

 Reference value :  0.00000e+00
Note: Compatibility modes selected: hs a


Circuit: ** test bench for ring

option SCALE: Scale is set to 1e-06 for instance and model parameters
Doing analysis at TEMP = 125.000000 and TNOM = 125.000000


No. of Data Rows : 1
l.xring.l1#branch = 0.000000e+00
m.xring.xm1.msky130_fd_pr__pfet_01v8#body = 1.980000e+00
m.xring.xm1.msky130_fd_pr__pfet_01v8#dbody = 1.980000e+00
m.xring.xm1.msky130_fd_pr__pfet_01v8#sbody = 1.980000e+00
m.xring.xm2.msky130_fd_pr__nfet_01v8#body = 2.780303e-09
m.xring.xm2.msky130_fd_pr__nfet_01v8#dbody = 6.746139e-09
m.xring.xm2.msky130_fd_pr__nfet_01v8#sbody = 1.391666e-09
m.xring.xm3.msky130_fd_pr__nfet_01v8#body = 8.043904e-09
m.xring.xm3.msky130_fd_pr__nfet_01v8#dbody = 5.428468e-09
m.xring.xm3.msky130_fd_pr__nfet_01v8#sbody = 4.022506e-09
m.xring.xm4.msky130_fd_pr__pfet_01v8#body = 1.980000e+00
m.xring.xm4.msky130_fd_pr__pfet_01v8#dbody = 1.980000e+00
m.xring.xm4.msky130_fd_pr__pfet_01v8#sbody = 1.980000e+00
m.xring.xm5.msky130_fd_pr__nfet_01v8#body = 5.678144e-10
m.xring.xm5.msky130_fd_pr__nfet_01v8#dbody = 1.419168e-09
m.xring.xm5.msky130_fd_pr__nfet_01v8#sbody = 2.842748e-10
m.xring.xm11.msky130_fd_pr__pfet_01v8#body = 1.980000e+00
m.xring.xm11.msky130_fd_pr__pfet_01v8#dbody = 1.980000e+00
m.xring.xm11.msky130_fd_pr__pfet_01v8#sbody = 1.980000e+00
out = 3.284205e-02
vdd = 1.980000e+00
vdd#branch = -1.38273e-03
vin = 8.407325e-01
xring.net1 = 8.407325e-01
xring.net2 = 8.407325e-01
xring.net3 = 8.407325e-01
xring.net4 = 1.158718e+00
xring.xr6.ra = 8.407325e-01
Doing analysis at TEMP = 125.000000 and TNOM = 125.000000

Using transient initial conditions
 Reference value :  1.68870e-06 Reference value :  3.38488e-06ERROR: (internal)  This operation is not defined for display type PrinterOnly.
Can't open viewport for graphics.

No. of Data Rows : 2559
Note: No ".plot", ".print", or ".fourier" lines; no simulations run
tperiod             =  1.000556e-07 targ=  2.166559e-06 trig=  2.066503e-06
freq = 9.994443e+00
