Warning: m=xx on .subckt line will override multiplier m hierarchy!

 Reference value :  0.00000e+00
Note: Compatibility modes selected: hs a


Circuit: ** test bench for ring

option SCALE: Scale is set to 1e-06 for instance and model parameters
Doing analysis at TEMP = 125.000000 and TNOM = 125.000000


No. of Data Rows : 1
l.xring.l1#branch = 0.000000e+00
m.xring.xm1.msky130_fd_pr__pfet_01v8#body = 1.620000e+00
m.xring.xm1.msky130_fd_pr__pfet_01v8#dbody = 1.620000e+00
m.xring.xm1.msky130_fd_pr__pfet_01v8#sbody = 1.620000e+00
m.xring.xm2.msky130_fd_pr__nfet_01v8#body = 2.679511e-09
m.xring.xm2.msky130_fd_pr__nfet_01v8#dbody = 6.692947e-09
m.xring.xm2.msky130_fd_pr__nfet_01v8#sbody = 1.340241e-09
m.xring.xm3.msky130_fd_pr__nfet_01v8#body = 7.037272e-10
m.xring.xm3.msky130_fd_pr__nfet_01v8#dbody = 1.749752e-09
m.xring.xm3.msky130_fd_pr__nfet_01v8#sbody = 3.520540e-10
m.xring.xm4.msky130_fd_pr__pfet_01v8#body = 1.620000e+00
m.xring.xm4.msky130_fd_pr__pfet_01v8#dbody = 1.620000e+00
m.xring.xm4.msky130_fd_pr__pfet_01v8#sbody = 1.620000e+00
m.xring.xm5.msky130_fd_pr__nfet_01v8#body = 9.067614e-10
m.xring.xm5.msky130_fd_pr__nfet_01v8#dbody = 2.266627e-09
m.xring.xm5.msky130_fd_pr__nfet_01v8#sbody = 4.536576e-10
m.xring.xm11.msky130_fd_pr__pfet_01v8#body = 1.620000e+00
m.xring.xm11.msky130_fd_pr__pfet_01v8#dbody = 1.620000e+00
m.xring.xm11.msky130_fd_pr__pfet_01v8#sbody = 1.620000e+00
out = 7.993723e-02
vdd = 1.620000e+00
vdd#branch = -5.40145e-04
vin = 7.289037e-01
xring.net1 = 7.289037e-01
xring.net2 = 7.289037e-01
xring.net3 = 7.289037e-01
xring.net4 = 8.135943e-01
xring.xr6.ra = 7.289037e-01
Doing analysis at TEMP = 125.000000 and TNOM = 125.000000

Using transient initial conditions
 Reference value :  1.85959e-06 Reference value :  3.50269e-06ERROR: (internal)  This operation is not defined for display type PrinterOnly.
Can't open viewport for graphics.

No. of Data Rows : 2556
Note: No ".plot", ".print", or ".fourier" lines; no simulations run
tperiod             =  1.001946e-07 targ=  2.165508e-06 trig=  2.065314e-06
freq = 9.980578e+00
