Warning: m=xx on .subckt line will override multiplier m hierarchy!

 Reference value :  0.00000e+00
Note: Compatibility modes selected: hs a


Circuit: ** test bench for ring

option SCALE: Scale is set to 1e-06 for instance and model parameters
Doing analysis at TEMP = 27.000000 and TNOM = 27.000000


No. of Data Rows : 1
l.xring.l1#branch = 0.000000e+00
m.xring.xm1.msky130_fd_pr__pfet_01v8#body = 1.980000e+00
m.xring.xm1.msky130_fd_pr__pfet_01v8#dbody = 1.980000e+00
m.xring.xm1.msky130_fd_pr__pfet_01v8#sbody = 1.980000e+00
m.xring.xm2.msky130_fd_pr__nfet_01v8#body = 8.689609e-11
m.xring.xm2.msky130_fd_pr__nfet_01v8#dbody = 6.428060e-11
m.xring.xm2.msky130_fd_pr__nfet_01v8#sbody = 4.344835e-11
m.xring.xm3.msky130_fd_pr__nfet_01v8#body = 3.265715e-11
m.xring.xm3.msky130_fd_pr__nfet_01v8#dbody = 3.762393e-11
m.xring.xm3.msky130_fd_pr__nfet_01v8#sbody = 1.632893e-11
m.xring.xm4.msky130_fd_pr__pfet_01v8#body = 1.980000e+00
m.xring.xm4.msky130_fd_pr__pfet_01v8#dbody = 1.980000e+00
m.xring.xm4.msky130_fd_pr__pfet_01v8#sbody = 1.980000e+00
m.xring.xm5.msky130_fd_pr__nfet_01v8#body = 5.858637e-12
m.xring.xm5.msky130_fd_pr__nfet_01v8#dbody = 1.464619e-11
m.xring.xm5.msky130_fd_pr__nfet_01v8#sbody = 2.929713e-12
m.xring.xm11.msky130_fd_pr__pfet_01v8#body = 1.980000e+00
m.xring.xm11.msky130_fd_pr__pfet_01v8#dbody = 1.980000e+00
m.xring.xm11.msky130_fd_pr__pfet_01v8#sbody = 1.980000e+00
out = 4.607453e-01
vdd = 1.980000e+00
vdd#branch = -1.09987e-03
vin = 8.137754e-01
xring.net1 = 8.137754e-01
xring.net2 = 8.137754e-01
xring.net3 = 8.137754e-01
xring.net4 = 8.467825e-01
xring.xr6.ra = 8.137754e-01
Doing analysis at TEMP = 27.000000 and TNOM = 27.000000

Using transient initial conditions
 Reference value :  1.65358e-06 Reference value :  3.34301e-06ERROR: (internal)  This operation is not defined for display type PrinterOnly.
Can't open viewport for graphics.

No. of Data Rows : 2539
Note: No ".plot", ".print", or ".fourier" lines; no simulations run
tperiod             =  1.002408e-07 targ=  2.062583e-06 trig=  1.962343e-06
freq = 9.975978e+00
