Warning: m=xx on .subckt line will override multiplier m hierarchy!

 Reference value :  0.00000e+00
Note: Compatibility modes selected: hs a


Circuit: ** test bench for ring

option SCALE: Scale is set to 1e-06 for instance and model parameters
Doing analysis at TEMP = 27.000000 and TNOM = 27.000000


No. of Data Rows : 1
l.xring.l1#branch = 0.000000e+00
m.xring.xm1.msky130_fd_pr__pfet_01v8#body = 1.980000e+00
m.xring.xm1.msky130_fd_pr__pfet_01v8#dbody = 1.980000e+00
m.xring.xm1.msky130_fd_pr__pfet_01v8#sbody = 1.980000e+00
m.xring.xm2.msky130_fd_pr__nfet_01v8#body = 3.799822e-11
m.xring.xm2.msky130_fd_pr__nfet_01v8#dbody = 3.924051e-11
m.xring.xm2.msky130_fd_pr__nfet_01v8#sbody = 1.899940e-11
m.xring.xm3.msky130_fd_pr__nfet_01v8#body = 6.248585e-12
m.xring.xm3.msky130_fd_pr__nfet_01v8#dbody = 1.562126e-11
m.xring.xm3.msky130_fd_pr__nfet_01v8#sbody = 3.124489e-12
m.xring.xm11.msky130_fd_pr__pfet_01v8#body = 1.980000e+00
m.xring.xm11.msky130_fd_pr__pfet_01v8#dbody = 1.980000e+00
m.xring.xm11.msky130_fd_pr__pfet_01v8#sbody = 1.980000e+00
vdd = 1.980000e+00
vdd#branch = -4.09327e-04
vin = 7.968923e-01
vout = 4.987066e-01
xring.net1 = 7.968923e-01
xring.net2 = 7.968923e-01
xring.net3 = 7.968923e-01
xring.net4 = 7.968923e-01
xring.xr1.ra = 7.968923e-01
xring.xr16.xsky130_fd_pr__res_xhigh_po_2p85.ra = 7.968923e-01
Doing analysis at TEMP = 27.000000 and TNOM = 27.000000

Using transient initial conditions
 Reference value :  1.98741e-06 Reference value :  3.78341e-06ERROR: (internal)  This operation is not defined for display type PrinterOnly.
Can't open viewport for graphics.

No. of Data Rows : 2017
Note: No ".plot", ".print", or ".fourier" lines; no simulations run
tperiod             =  9.951111e-08 targ=  1.696832e-06 trig=  1.597321e-06
freq = 1.004913e-02
