Warning: m=xx on .subckt line will override multiplier m hierarchy!

 Reference value :  0.00000e+00
Note: Compatibility modes selected: hs a


Circuit: ** test bench for ring

option SCALE: Scale is set to 1e-06 for instance and model parameters
Doing analysis at TEMP = 27.000000 and TNOM = 27.000000


No. of Data Rows : 1
l.xring.l1#branch = 0.000000e+00
m.xring.xm1.msky130_fd_pr__pfet_01v8#body = 1.620000e+00
m.xring.xm1.msky130_fd_pr__pfet_01v8#dbody = 1.620000e+00
m.xring.xm1.msky130_fd_pr__pfet_01v8#sbody = 1.620000e+00
m.xring.xm2.msky130_fd_pr__nfet_01v8#body = 9.804866e-12
m.xring.xm2.msky130_fd_pr__nfet_01v8#dbody = 2.287521e-11
m.xring.xm2.msky130_fd_pr__nfet_01v8#sbody = 4.902477e-12
m.xring.xm3.msky130_fd_pr__nfet_01v8#body = 5.999755e-12
m.xring.xm3.msky130_fd_pr__nfet_01v8#dbody = 1.499932e-11
m.xring.xm3.msky130_fd_pr__nfet_01v8#sbody = 2.999942e-12
m.xring.xm4.msky130_fd_pr__pfet_01v8#body = 1.620000e+00
m.xring.xm4.msky130_fd_pr__pfet_01v8#dbody = 1.620000e+00
m.xring.xm4.msky130_fd_pr__pfet_01v8#sbody = 1.620000e+00
m.xring.xm5.msky130_fd_pr__nfet_01v8#body = 1.138310e-08
m.xring.xm5.msky130_fd_pr__nfet_01v8#dbody = 5.732214e-09
m.xring.xm5.msky130_fd_pr__nfet_01v8#sbody = 5.691548e-09
m.xring.xm11.msky130_fd_pr__pfet_01v8#body = 1.620000e+00
m.xring.xm11.msky130_fd_pr__pfet_01v8#dbody = 1.620000e+00
m.xring.xm11.msky130_fd_pr__pfet_01v8#sbody = 1.620000e+00
out = 1.618667e+00
vdd = 1.620000e+00
vdd#branch = -1.15783e-04
vin = 6.993775e-01
xring.net1 = 6.993775e-01
xring.net2 = 6.993775e-01
xring.net3 = 6.993775e-01
xring.net4 = 4.749360e-01
xring.xr6.ra = 6.993775e-01
Doing analysis at TEMP = 27.000000 and TNOM = 27.000000

Using transient initial conditions
 Reference value :  1.83741e-06 Reference value :  3.76957e-06ERROR: (internal)  This operation is not defined for display type PrinterOnly.
Can't open viewport for graphics.

No. of Data Rows : 2526
Note: No ".plot", ".print", or ".fourier" lines; no simulations run
tperiod             =  1.000865e-07 targ=  2.155244e-06 trig=  2.055157e-06
freq = 9.991357e+00
