Warning: m=xx on .subckt line will override multiplier m hierarchy!

 Reference value :  0.00000e+00
Note: Compatibility modes selected: hs a


Circuit: ** test bench for ring

option SCALE: Scale is set to 1e-06 for instance and model parameters
Doing analysis at TEMP = 27.000000 and TNOM = 27.000000


No. of Data Rows : 1
l.xring.l1#branch = 0.000000e+00
m.xring.xm1.msky130_fd_pr__pfet_01v8#body = 1.620000e+00
m.xring.xm1.msky130_fd_pr__pfet_01v8#dbody = 1.620000e+00
m.xring.xm1.msky130_fd_pr__pfet_01v8#sbody = 1.620000e+00
m.xring.xm2.msky130_fd_pr__nfet_01v8#body = 9.027572e-12
m.xring.xm2.msky130_fd_pr__nfet_01v8#dbody = 2.191116e-11
m.xring.xm2.msky130_fd_pr__nfet_01v8#sbody = 4.513833e-12
m.xring.xm3.msky130_fd_pr__nfet_01v8#body = 4.936450e-12
m.xring.xm3.msky130_fd_pr__nfet_01v8#dbody = 1.234108e-11
m.xring.xm3.msky130_fd_pr__nfet_01v8#sbody = 2.468266e-12
m.xring.xm11.msky130_fd_pr__pfet_01v8#body = 1.620000e+00
m.xring.xm11.msky130_fd_pr__pfet_01v8#dbody = 1.620000e+00
m.xring.xm11.msky130_fd_pr__pfet_01v8#sbody = 1.620000e+00
vdd = 1.620000e+00
vdd#branch = -6.62652e-05
vin = 6.831242e-01
vout = 3.937360e-01
xring.net1 = 6.831242e-01
xring.net2 = 6.831242e-01
xring.net3 = 6.831242e-01
xring.net4 = 6.831242e-01
xring.xr1.ra = 6.831242e-01
xring.xr16.xsky130_fd_pr__res_xhigh_po_2p85.ra = 6.831242e-01
Doing analysis at TEMP = 27.000000 and TNOM = 27.000000

Using transient initial conditions
 Reference value :  1.88329e-06 Reference value :  3.86729e-06ERROR: (internal)  This operation is not defined for display type PrinterOnly.
Can't open viewport for graphics.

No. of Data Rows : 2016
Note: No ".plot", ".print", or ".fourier" lines; no simulations run
tperiod             =  9.972749e-08 targ=  1.699076e-06 trig=  1.599349e-06
freq = 1.002733e-02
