Warning: m=xx on .subckt line will override multiplier m hierarchy!

 Reference value :  0.00000e+00
Note: Compatibility modes selected: hs a


Circuit: ** test bench for ring

option SCALE: Scale is set to 1e-06 for instance and model parameters
Doing analysis at TEMP = -40.000000 and TNOM = -40.000000


No. of Data Rows : 1
l.xring.l1#branch = 0.000000e+00
m.xring.xm1.msky130_fd_pr__pfet_01v8#body = 1.980000e+00
m.xring.xm1.msky130_fd_pr__pfet_01v8#dbody = 1.980000e+00
m.xring.xm1.msky130_fd_pr__pfet_01v8#sbody = 1.980000e+00
m.xring.xm2.msky130_fd_pr__nfet_01v8#body = 6.079681e-11
m.xring.xm2.msky130_fd_pr__nfet_01v8#dbody = 5.140835e-11
m.xring.xm2.msky130_fd_pr__nfet_01v8#sbody = 3.039851e-11
m.xring.xm3.msky130_fd_pr__nfet_01v8#body = 5.159668e-08
m.xring.xm3.msky130_fd_pr__nfet_01v8#dbody = 2.584005e-08
m.xring.xm3.msky130_fd_pr__nfet_01v8#sbody = 2.579834e-08
m.xring.xm11.msky130_fd_pr__pfet_01v8#body = 1.980000e+00
m.xring.xm11.msky130_fd_pr__pfet_01v8#dbody = 1.980000e+00
m.xring.xm11.msky130_fd_pr__pfet_01v8#sbody = 1.980000e+00
vdd = 1.980000e+00
vdd#branch = -1.86900e-04
vin = 8.404014e-01
vout = 1.668316e+00
xring.net1 = 8.404014e-01
xring.net2 = 8.404014e-01
xring.net3 = 8.404014e-01
xring.net4 = 8.404014e-01
xring.xr1.ra = 8.404014e-01
xring.xr16.xsky130_fd_pr__res_xhigh_po_2p85.ra = 8.404014e-01
Doing analysis at TEMP = -40.000000 and TNOM = -40.000000

Using transient initial conditions
 Reference value :  1.77587e-06 Reference value :  3.93787e-06ERROR: (internal)  This operation is not defined for display type PrinterOnly.
Can't open viewport for graphics.

No. of Data Rows : 2017
Note: No ".plot", ".print", or ".fourier" lines; no simulations run
tperiod             =  9.961819e-08 targ=  1.697612e-06 trig=  1.597994e-06
freq = 1.003833e-02
