Warning: m=xx on .subckt line will override multiplier m hierarchy!

 Reference value :  0.00000e+00
Note: Compatibility modes selected: hs a


Circuit: ** test bench for ring

option SCALE: Scale is set to 1e-06 for instance and model parameters
Doing analysis at TEMP = 125.000000 and TNOM = 125.000000


No. of Data Rows : 1
l.xring.l1#branch = 0.000000e+00
m.xring.xm1.msky130_fd_pr__pfet_01v8#body = 1.620000e+00
m.xring.xm1.msky130_fd_pr__pfet_01v8#dbody = 1.620000e+00
m.xring.xm1.msky130_fd_pr__pfet_01v8#sbody = 1.620000e+00
m.xring.xm2.msky130_fd_pr__nfet_01v8#body = 1.761175e-09
m.xring.xm2.msky130_fd_pr__nfet_01v8#dbody = 4.400160e-09
m.xring.xm2.msky130_fd_pr__nfet_01v8#sbody = 8.809063e-10
m.xring.xm3.msky130_fd_pr__nfet_01v8#body = 7.818091e-09
m.xring.xm3.msky130_fd_pr__nfet_01v8#dbody = 4.279697e-09
m.xring.xm3.msky130_fd_pr__nfet_01v8#sbody = 3.909060e-09
m.xring.xm11.msky130_fd_pr__pfet_01v8#body = 1.620000e+00
m.xring.xm11.msky130_fd_pr__pfet_01v8#dbody = 1.620000e+00
m.xring.xm11.msky130_fd_pr__pfet_01v8#sbody = 1.620000e+00
vdd = 1.620000e+00
vdd#branch = -1.87392e-04
vin = 7.603613e-01
vout = 1.440955e+00
xring.net1 = 7.603613e-01
xring.net2 = 7.603613e-01
xring.net3 = 7.603613e-01
xring.net4 = 7.603613e-01
xring.xr1.ra = 7.603613e-01
xring.xr16.xsky130_fd_pr__res_xhigh_po_2p85.ra = 7.603613e-01
Doing analysis at TEMP = 125.000000 and TNOM = 125.000000

Using transient initial conditions
 Reference value :  2.18239e-06ERROR: (internal)  This operation is not defined for display type PrinterOnly.
Can't open viewport for graphics.

No. of Data Rows : 2016
Note: No ".plot", ".print", or ".fourier" lines; no simulations run
tperiod             =  9.990346e-08 targ=  1.696887e-06 trig=  1.596983e-06
freq = 1.000966e-02
