Warning: m=xx on .subckt line will override multiplier m hierarchy!

 Reference value :  0.00000e+00
Note: Compatibility modes selected: hs a


Circuit: ** test bench for ring

option SCALE: Scale is set to 1e-06 for instance and model parameters
Doing analysis at TEMP = 125.000000 and TNOM = 125.000000


No. of Data Rows : 1
l.xring.l1#branch = 0.000000e+00
m.xring.xm1.msky130_fd_pr__pfet_01v8#body = 1.620000e+00
m.xring.xm1.msky130_fd_pr__pfet_01v8#dbody = 1.620000e+00
m.xring.xm1.msky130_fd_pr__pfet_01v8#sbody = 1.620000e+00
m.xring.xm2.msky130_fd_pr__nfet_01v8#body = 2.686294e-09
m.xring.xm2.msky130_fd_pr__nfet_01v8#dbody = 6.709666e-09
m.xring.xm2.msky130_fd_pr__nfet_01v8#sbody = 1.343612e-09
m.xring.xm3.msky130_fd_pr__nfet_01v8#body = 5.149436e-08
m.xring.xm3.msky130_fd_pr__nfet_01v8#dbody = 2.717250e-08
m.xring.xm3.msky130_fd_pr__nfet_01v8#sbody = 2.574729e-08
m.xring.xm4.msky130_fd_pr__pfet_01v8#body = 1.620000e+00
m.xring.xm4.msky130_fd_pr__pfet_01v8#dbody = 1.620000e+00
m.xring.xm4.msky130_fd_pr__pfet_01v8#sbody = 1.620000e+00
m.xring.xm5.msky130_fd_pr__nfet_01v8#body = 1.606841e-12
m.xring.xm5.msky130_fd_pr__nfet_01v8#dbody = 4.016382e-12
m.xring.xm5.msky130_fd_pr__nfet_01v8#sbody = 8.041414e-13
m.xring.xm11.msky130_fd_pr__pfet_01v8#body = 1.620000e+00
m.xring.xm11.msky130_fd_pr__pfet_01v8#dbody = 1.620000e+00
m.xring.xm11.msky130_fd_pr__pfet_01v8#sbody = 1.620000e+00
out = 6.535825e-05
vdd = 1.620000e+00
vdd#branch = -3.27487e-04
vin = 7.663565e-01
xring.net1 = 7.663565e-01
xring.net2 = 7.663565e-01
xring.net3 = 7.663565e-01
xring.net4 = 1.415470e+00
xring.xr6.ra = 7.663565e-01
Doing analysis at TEMP = 125.000000 and TNOM = 125.000000

Using transient initial conditions
 Reference value :  1.82893e-06 Reference value :  3.63024e-06ERROR: (internal)  This operation is not defined for display type PrinterOnly.
Can't open viewport for graphics.

No. of Data Rows : 2526
Note: No ".plot", ".print", or ".fourier" lines; no simulations run
tperiod             =  1.000474e-07 targ=  2.178937e-06 trig=  2.078890e-06
freq = 9.995262e+00
