Warning: m=xx on .subckt line will override multiplier m hierarchy!

 Reference value :  0.00000e+00
Note: Compatibility modes selected: hs a


Circuit: ** test bench for ring

option SCALE: Scale is set to 1e-06 for instance and model parameters
Doing analysis at TEMP = 125.000000 and TNOM = 125.000000


No. of Data Rows : 1
l.xring.l1#branch = 0.000000e+00
m.xring.xm1.msky130_fd_pr__pfet_01v8#body = 1.800000e+00
m.xring.xm1.msky130_fd_pr__pfet_01v8#dbody = 1.800000e+00
m.xring.xm1.msky130_fd_pr__pfet_01v8#sbody = 1.800000e+00
m.xring.xm2.msky130_fd_pr__nfet_01v8#body = 2.702233e-09
m.xring.xm2.msky130_fd_pr__nfet_01v8#dbody = 6.719205e-09
m.xring.xm2.msky130_fd_pr__nfet_01v8#sbody = 1.351993e-09
m.xring.xm3.msky130_fd_pr__nfet_01v8#body = 2.431988e-07
m.xring.xm3.msky130_fd_pr__nfet_01v8#dbody = 1.230282e-07
m.xring.xm3.msky130_fd_pr__nfet_01v8#sbody = 1.215996e-07
m.xring.xm4.msky130_fd_pr__pfet_01v8#body = 1.800000e+00
m.xring.xm4.msky130_fd_pr__pfet_01v8#dbody = 1.800000e+00
m.xring.xm4.msky130_fd_pr__pfet_01v8#sbody = 1.800000e+00
m.xring.xm5.msky130_fd_pr__nfet_01v8#body = 2.921412e-12
m.xring.xm5.msky130_fd_pr__nfet_01v8#dbody = 7.302041e-12
m.xring.xm5.msky130_fd_pr__nfet_01v8#sbody = 1.462197e-12
m.xring.xm11.msky130_fd_pr__pfet_01v8#body = 1.800000e+00
m.xring.xm11.msky130_fd_pr__pfet_01v8#dbody = 1.800000e+00
m.xring.xm11.msky130_fd_pr__pfet_01v8#sbody = 1.800000e+00
out = 1.189001e-04
vdd = 1.800000e+00
vdd#branch = -6.21527e-04
vin = 8.291320e-01
xring.net1 = 8.291320e-01
xring.net2 = 8.291320e-01
xring.net3 = 8.291320e-01
xring.net4 = 1.555547e+00
xring.xr6.ra = 8.291320e-01
Doing analysis at TEMP = 125.000000 and TNOM = 125.000000

Using transient initial conditions
 Reference value :  1.75679e-06 Reference value :  3.50532e-06ERROR: (internal)  This operation is not defined for display type PrinterOnly.
Can't open viewport for graphics.

No. of Data Rows : 2546
Note: No ".plot", ".print", or ".fourier" lines; no simulations run
tperiod             =  9.976196e-08 targ=  2.176845e-06 trig=  2.077083e-06
freq = 1.002386e+01
