Warning: m=xx on .subckt line will override multiplier m hierarchy!

 Reference value :  0.00000e+00
Note: Compatibility modes selected: hs a


Circuit: ** test bench for ring

option SCALE: Scale is set to 1e-06 for instance and model parameters
Doing analysis at TEMP = 125.000000 and TNOM = 125.000000


No. of Data Rows : 1
l.xring.l1#branch = 0.000000e+00
m.xring.xm1.msky130_fd_pr__pfet_01v8#body = 1.980000e+00
m.xring.xm1.msky130_fd_pr__pfet_01v8#dbody = 1.980000e+00
m.xring.xm1.msky130_fd_pr__pfet_01v8#sbody = 1.980000e+00
m.xring.xm2.msky130_fd_pr__nfet_01v8#body = 2.776703e-09
m.xring.xm2.msky130_fd_pr__nfet_01v8#dbody = 6.757999e-09
m.xring.xm2.msky130_fd_pr__nfet_01v8#sbody = 1.389760e-09
m.xring.xm3.msky130_fd_pr__nfet_01v8#body = 7.667809e-07
m.xring.xm3.msky130_fd_pr__nfet_01v8#dbody = 3.848223e-07
m.xring.xm3.msky130_fd_pr__nfet_01v8#sbody = 3.833908e-07
m.xring.xm4.msky130_fd_pr__pfet_01v8#body = 1.980000e+00
m.xring.xm4.msky130_fd_pr__pfet_01v8#dbody = 1.980000e+00
m.xring.xm4.msky130_fd_pr__pfet_01v8#sbody = 1.980000e+00
m.xring.xm5.msky130_fd_pr__nfet_01v8#body = 7.055178e-12
m.xring.xm5.msky130_fd_pr__nfet_01v8#dbody = 1.763402e-11
m.xring.xm5.msky130_fd_pr__nfet_01v8#sbody = 3.531518e-12
m.xring.xm11.msky130_fd_pr__pfet_01v8#body = 1.980000e+00
m.xring.xm11.msky130_fd_pr__pfet_01v8#dbody = 1.980000e+00
m.xring.xm11.msky130_fd_pr__pfet_01v8#sbody = 1.980000e+00
out = 2.876882e-04
vdd = 1.980000e+00
vdd#branch = -1.01136e-03
vin = 8.915044e-01
xring.net1 = 8.915044e-01
xring.net2 = 8.915044e-01
xring.net3 = 8.915044e-01
xring.net4 = 1.675180e+00
xring.xr6.ra = 8.915044e-01
Doing analysis at TEMP = 125.000000 and TNOM = 125.000000

Using transient initial conditions
 Reference value :  1.08329e-06 Reference value :  2.37287e-06 Reference value :  3.71871e-06 Reference value :  4.91028e-06ERROR: (internal)  This operation is not defined for display type PrinterOnly.
Can't open viewport for graphics.

No. of Data Rows : 2560
Note: No ".plot", ".print", or ".fourier" lines; no simulations run
tperiod             =  1.000116e-07 targ=  2.175977e-06 trig=  2.075965e-06
freq = 9.998840e+00
