Warning: m=xx on .subckt line will override multiplier m hierarchy!

 Reference value :  0.00000e+00
Note: Compatibility modes selected: hs a


Circuit: ** test bench for ring

option SCALE: Scale is set to 1e-06 for instance and model parameters
Doing analysis at TEMP = 27.000000 and TNOM = 27.000000


No. of Data Rows : 1
l.xring.l1#branch = 0.000000e+00
m.xring.xm1.msky130_fd_pr__pfet_01v8#body = 1.620000e+00
m.xring.xm1.msky130_fd_pr__pfet_01v8#dbody = 1.620000e+00
m.xring.xm1.msky130_fd_pr__pfet_01v8#sbody = 1.620000e+00
m.xring.xm2.msky130_fd_pr__nfet_01v8#body = 1.072029e-11
m.xring.xm2.msky130_fd_pr__nfet_01v8#dbody = 2.410766e-11
m.xring.xm2.msky130_fd_pr__nfet_01v8#sbody = 5.360189e-12
m.xring.xm3.msky130_fd_pr__nfet_01v8#body = 1.045179e-09
m.xring.xm3.msky130_fd_pr__nfet_01v8#dbody = 5.506596e-10
m.xring.xm3.msky130_fd_pr__nfet_01v8#sbody = 5.225897e-10
m.xring.xm4.msky130_fd_pr__pfet_01v8#body = 1.620000e+00
m.xring.xm4.msky130_fd_pr__pfet_01v8#dbody = 1.620000e+00
m.xring.xm4.msky130_fd_pr__pfet_01v8#sbody = 1.620000e+00
m.xring.xm5.msky130_fd_pr__nfet_01v8#body = 1.370530e-15
m.xring.xm5.msky130_fd_pr__nfet_01v8#dbody = 3.425857e-15
m.xring.xm5.msky130_fd_pr__nfet_01v8#sbody = 6.857337e-16
m.xring.xm11.msky130_fd_pr__pfet_01v8#body = 1.620000e+00
m.xring.xm11.msky130_fd_pr__pfet_01v8#dbody = 1.620000e+00
m.xring.xm11.msky130_fd_pr__pfet_01v8#sbody = 1.620000e+00
out = 8.852375e-05
vdd = 1.620000e+00
vdd#branch = -9.30848e-05
vin = 7.303218e-01
xring.net1 = 7.303218e-01
xring.net2 = 7.303218e-01
xring.net3 = 7.303218e-01
xring.net4 = 1.117711e+00
xring.xr6.ra = 7.303218e-01
Doing analysis at TEMP = 27.000000 and TNOM = 27.000000

Using transient initial conditions
 Reference value :  1.91512e-06 Reference value :  3.69712e-06ERROR: (internal)  This operation is not defined for display type PrinterOnly.
Can't open viewport for graphics.

No. of Data Rows : 2520
Note: No ".plot", ".print", or ".fourier" lines; no simulations run
tperiod             =  1.001118e-07 targ=  2.373674e-06 trig=  2.273562e-06
freq = 9.988832e+00
