Warning: m=xx on .subckt line will override multiplier m hierarchy!

 Reference value :  0.00000e+00
Note: Compatibility modes selected: hs a


Circuit: ** test bench for ring

option SCALE: Scale is set to 1e-06 for instance and model parameters
Doing analysis at TEMP = 27.000000 and TNOM = 27.000000


No. of Data Rows : 1
l.xring.l1#branch = 0.000000e+00
m.xring.xm1.msky130_fd_pr__pfet_01v8#body = 1.620000e+00
m.xring.xm1.msky130_fd_pr__pfet_01v8#dbody = 1.620000e+00
m.xring.xm1.msky130_fd_pr__pfet_01v8#sbody = 1.620000e+00
m.xring.xm2.msky130_fd_pr__nfet_01v8#body = 9.973120e-12
m.xring.xm2.msky130_fd_pr__nfet_01v8#dbody = 2.345136e-11
m.xring.xm2.msky130_fd_pr__nfet_01v8#sbody = 4.986600e-12
m.xring.xm3.msky130_fd_pr__nfet_01v8#body = 3.460184e-09
m.xring.xm3.msky130_fd_pr__nfet_01v8#dbody = 1.766531e-09
m.xring.xm3.msky130_fd_pr__nfet_01v8#sbody = 1.730092e-09
m.xring.xm11.msky130_fd_pr__pfet_01v8#body = 1.620000e+00
m.xring.xm11.msky130_fd_pr__pfet_01v8#dbody = 1.620000e+00
m.xring.xm11.msky130_fd_pr__pfet_01v8#sbody = 1.620000e+00
vdd = 1.620000e+00
vdd#branch = -5.36381e-05
vin = 7.257756e-01
vout = 1.456349e+00
xring.net1 = 7.257756e-01
xring.net2 = 7.257756e-01
xring.net3 = 7.257756e-01
xring.net4 = 7.257756e-01
xring.xr1.ra = 7.257756e-01
xring.xr16.xsky130_fd_pr__res_xhigh_po_2p85.ra = 7.257756e-01
Doing analysis at TEMP = 27.000000 and TNOM = 27.000000

Using transient initial conditions
 Reference value :  1.90645e-06 Reference value :  4.00000e-06ERROR: (internal)  This operation is not defined for display type PrinterOnly.
Can't open viewport for graphics.

No. of Data Rows : 2016
Note: No ".plot", ".print", or ".fourier" lines; no simulations run
tperiod             =  9.984532e-08 targ=  1.697161e-06 trig=  1.597316e-06
freq = 1.001549e-02
