Warning: m=xx on .subckt line will override multiplier m hierarchy!

 Reference value :  0.00000e+00
Note: Compatibility modes selected: hs a


Circuit: ** test bench for ring

option SCALE: Scale is set to 1e-06 for instance and model parameters
Doing analysis at TEMP = 27.000000 and TNOM = 27.000000


No. of Data Rows : 1
l.xring.l1#branch = 0.000000e+00
m.xring.xm1.msky130_fd_pr__pfet_01v8#body = 1.800000e+00
m.xring.xm1.msky130_fd_pr__pfet_01v8#dbody = 1.800000e+00
m.xring.xm1.msky130_fd_pr__pfet_01v8#sbody = 1.800000e+00
m.xring.xm2.msky130_fd_pr__nfet_01v8#body = 2.546153e-11
m.xring.xm2.msky130_fd_pr__nfet_01v8#dbody = 3.314466e-11
m.xring.xm2.msky130_fd_pr__nfet_01v8#sbody = 1.273090e-11
m.xring.xm3.msky130_fd_pr__nfet_01v8#body = 3.899169e-08
m.xring.xm3.msky130_fd_pr__nfet_01v8#dbody = 1.953018e-08
m.xring.xm3.msky130_fd_pr__nfet_01v8#sbody = 1.949584e-08
m.xring.xm4.msky130_fd_pr__pfet_01v8#body = 1.800000e+00
m.xring.xm4.msky130_fd_pr__pfet_01v8#dbody = 1.800000e+00
m.xring.xm4.msky130_fd_pr__pfet_01v8#sbody = 1.800000e+00
m.xring.xm5.msky130_fd_pr__nfet_01v8#body = 3.856861e-16
m.xring.xm5.msky130_fd_pr__nfet_01v8#dbody = 9.640071e-16
m.xring.xm5.msky130_fd_pr__nfet_01v8#sbody = 1.930513e-16
m.xring.xm11.msky130_fd_pr__pfet_01v8#body = 1.800000e+00
m.xring.xm11.msky130_fd_pr__pfet_01v8#dbody = 1.800000e+00
m.xring.xm11.msky130_fd_pr__pfet_01v8#sbody = 1.800000e+00
out = 2.490724e-05
vdd = 1.800000e+00
vdd#branch = -2.89928e-04
vin = 7.969792e-01
xring.net1 = 7.969792e-01
xring.net2 = 7.969792e-01
xring.net3 = 7.969792e-01
xring.net4 = 1.368214e+00
xring.xr6.ra = 7.969792e-01
Doing analysis at TEMP = 27.000000 and TNOM = 27.000000

Using transient initial conditions
 Reference value :  1.38969e-06 Reference value :  2.57909e-06 Reference value :  3.71180e-06 Reference value :  4.87993e-06ERROR: (internal)  This operation is not defined for display type PrinterOnly.
Can't open viewport for graphics.

No. of Data Rows : 2566
Note: No ".plot", ".print", or ".fourier" lines; no simulations run
tperiod             =  1.001371e-07 targ=  2.073588e-06 trig=  1.973450e-06
freq = 9.986309e+00
