Warning: m=xx on .subckt line will override multiplier m hierarchy!

 Reference value :  0.00000e+00
Note: Compatibility modes selected: hs a


Circuit: ** test bench for ring

option SCALE: Scale is set to 1e-06 for instance and model parameters
Doing analysis at TEMP = 27.000000 and TNOM = 27.000000


No. of Data Rows : 1
l.xring.l1#branch = 0.000000e+00
m.xring.xm1.msky130_fd_pr__pfet_01v8#body = 1.980000e+00
m.xring.xm1.msky130_fd_pr__pfet_01v8#dbody = 1.980000e+00
m.xring.xm1.msky130_fd_pr__pfet_01v8#sbody = 1.980000e+00
m.xring.xm2.msky130_fd_pr__nfet_01v8#body = 9.831443e-11
m.xring.xm2.msky130_fd_pr__nfet_01v8#dbody = 7.109971e-11
m.xring.xm2.msky130_fd_pr__nfet_01v8#sbody = 4.915750e-11
m.xring.xm3.msky130_fd_pr__nfet_01v8#body = 4.123141e-07
m.xring.xm3.msky130_fd_pr__nfet_01v8#dbody = 2.061970e-07
m.xring.xm3.msky130_fd_pr__nfet_01v8#sbody = 2.061571e-07
m.xring.xm4.msky130_fd_pr__pfet_01v8#body = 1.980000e+00
m.xring.xm4.msky130_fd_pr__pfet_01v8#dbody = 1.980000e+00
m.xring.xm4.msky130_fd_pr__pfet_01v8#sbody = 1.980000e+00
m.xring.xm5.msky130_fd_pr__nfet_01v8#body = 2.023965e-16
m.xring.xm5.msky130_fd_pr__nfet_01v8#dbody = 5.058531e-16
m.xring.xm5.msky130_fd_pr__nfet_01v8#sbody = 1.013363e-16
m.xring.xm11.msky130_fd_pr__pfet_01v8#body = 1.980000e+00
m.xring.xm11.msky130_fd_pr__pfet_01v8#dbody = 1.980000e+00
m.xring.xm11.msky130_fd_pr__pfet_01v8#sbody = 1.980000e+00
out = 1.307012e-05
vdd = 1.980000e+00
vdd#branch = -6.30335e-04
vin = 8.581270e-01
xring.net1 = 8.581270e-01
xring.net2 = 8.581270e-01
xring.net3 = 8.581270e-01
xring.net4 = 1.592563e+00
xring.xr6.ra = 8.581270e-01
Doing analysis at TEMP = 27.000000 and TNOM = 27.000000

Using transient initial conditions
 Reference value :  1.84160e-06 Reference value :  3.60791e-06ERROR: (internal)  This operation is not defined for display type PrinterOnly.
Can't open viewport for graphics.

No. of Data Rows : 2583
Note: No ".plot", ".print", or ".fourier" lines; no simulations run
tperiod             =  1.005048e-07 targ=  2.072857e-06 trig=  1.972352e-06
freq = 9.949774e+00
