Warning: m=xx on .subckt line will override multiplier m hierarchy!

 Reference value :  0.00000e+00Note: No ".plot", ".print", or ".fourier" lines; no simulations run

Note: Compatibility modes selected: hs a


Circuit: ** test bench for bgr

option SCALE: Scale is set to 1e-06 for instance and model parameters
Doing analysis at TEMP = -10.000000 and TNOM = -10.000000


No. of Data Rows : 1
iref = 8.137974e+01
iref = 8.137974e+01
m.xvco.xm2.msky130_fd_pr__pfet_g5v0d10v5#body = 1.800000e+00
m.xvco.xm2.msky130_fd_pr__pfet_g5v0d10v5#dbody = 1.800000e+00
m.xvco.xm2.msky130_fd_pr__pfet_g5v0d10v5#sbody = 1.800000e+00
m.xvco.xm13.msky130_fd_pr__pfet_g5v0d10v5#body = 1.800000e+00
m.xvco.xm13.msky130_fd_pr__pfet_g5v0d10v5#dbody = 1.800000e+00
m.xvco.xm13.msky130_fd_pr__pfet_g5v0d10v5#sbody = 1.800000e+00
m.xvco.xm14.msky130_fd_pr__pfet_g5v0d10v5#body = 1.800000e+00
m.xvco.xm14.msky130_fd_pr__pfet_g5v0d10v5#dbody = 1.800000e+00
m.xvco.xm14.msky130_fd_pr__pfet_g5v0d10v5#sbody = 1.800000e+00
m.xvco.xm15.msky130_fd_pr__pfet_g5v0d10v5#body = 1.800000e+00
m.xvco.xm15.msky130_fd_pr__pfet_g5v0d10v5#dbody = 1.800000e+00
m.xvco.xm15.msky130_fd_pr__pfet_g5v0d10v5#sbody = 1.800000e+00
m.xvco.xm16.msky130_fd_pr__pfet_g5v0d10v5#body = 1.800000e+00
m.xvco.xm16.msky130_fd_pr__pfet_g5v0d10v5#dbody = 1.800000e+00
m.xvco.xm16.msky130_fd_pr__pfet_g5v0d10v5#sbody = 1.800000e+00
m.xvco.xm17.msky130_fd_pr__pfet_g5v0d10v5#body = 1.800000e+00
m.xvco.xm17.msky130_fd_pr__pfet_g5v0d10v5#dbody = 1.800000e+00
m.xvco.xm17.msky130_fd_pr__pfet_g5v0d10v5#sbody = 1.800000e+00
m.xvco.xm18.msky130_fd_pr__pfet_g5v0d10v5#body = 1.800000e+00
m.xvco.xm18.msky130_fd_pr__pfet_g5v0d10v5#dbody = 1.800000e+00
m.xvco.xm18.msky130_fd_pr__pfet_g5v0d10v5#sbody = 1.800000e+00
m.xvco.xm19.msky130_fd_pr__nfet_g5v0d10v5#body = 1.047545e-11
m.xvco.xm19.msky130_fd_pr__nfet_g5v0d10v5#dbody = 2.618850e-11
m.xvco.xm19.msky130_fd_pr__nfet_g5v0d10v5#sbody = 5.237832e-12
m.xvco.xm20.msky130_fd_pr__nfet_g5v0d10v5#body = 1.155451e-11
m.xvco.xm20.msky130_fd_pr__nfet_g5v0d10v5#dbody = 2.888627e-11
m.xvco.xm20.msky130_fd_pr__nfet_g5v0d10v5#sbody = 5.777264e-12
m.xvco.xm21.msky130_fd_pr__nfet_g5v0d10v5#body = 8.788519e-12
m.xvco.xm21.msky130_fd_pr__nfet_g5v0d10v5#dbody = 2.197129e-11
m.xvco.xm21.msky130_fd_pr__nfet_g5v0d10v5#sbody = 4.394266e-12
m.xvco.xm22.msky130_fd_pr__pfet_g5v0d10v5#body = 1.800000e+00
m.xvco.xm22.msky130_fd_pr__pfet_g5v0d10v5#dbody = 1.800000e+00
m.xvco.xm22.msky130_fd_pr__pfet_g5v0d10v5#sbody = 1.800000e+00
m.xvco.xm23.msky130_fd_pr__nfet_g5v0d10v5#body = 2.309268e-11
m.xvco.xm23.msky130_fd_pr__nfet_g5v0d10v5#dbody = 5.653232e-11
m.xvco.xm23.msky130_fd_pr__nfet_g5v0d10v5#sbody = 1.154634e-11
m.xvco.xm24.msky130_fd_pr__pfet_g5v0d10v5#body = 1.800000e+00
m.xvco.xm24.msky130_fd_pr__pfet_g5v0d10v5#dbody = 1.800000e+00
m.xvco.xm24.msky130_fd_pr__pfet_g5v0d10v5#sbody = 1.800000e+00
out = 9.000000e-01
q.xvco.xq2.qsky130_fd_pr__pnp_05v5_w0p68l0p68#collcx = 6.694044e-05
q.xvco.xq3.qsky130_fd_pr__pnp_05v5_w0p68l0p68#collcx = 6.694044e-05
q.xvco.xq4.qsky130_fd_pr__pnp_05v5_w0p68l0p68#collcx = 6.694044e-05
q.xvco.xq5.qsky130_fd_pr__pnp_05v5_w0p68l0p68#collcx = 6.694044e-05
q.xvco.xq6.qsky130_fd_pr__pnp_05v5_w0p68l0p68#collcx = 6.694044e-05
q.xvco.xq7.qsky130_fd_pr__pnp_05v5_w0p68l0p68#collcx = 6.694044e-05
q.xvco.xq8.qsky130_fd_pr__pnp_05v5_w0p68l0p68#collcx = 6.694044e-05
q.xvco.xq9.qsky130_fd_pr__pnp_05v5_w0p68l0p68#collcx = 6.694044e-05
q.xvco.xq10.qsky130_fd_pr__pnp_05v5_w0p68l0p68#collcx = 4.529328e-04
vdd = 1.800000e+00
vdd#branch = -1.64154e-04
vtuner#branch = 8.137974e-05
xvco.net1 = 8.380352e-01
xvco.net2 = 7.521903e-01
xvco.net3 = 7.847829e-01
xvco.net4 = 7.030813e-01
xvco.net5 = 1.653469e+00
xvco.net6 = 9.243608e-01
xvco.net7 = 1.799439e+00
xvco.vbe = 7.977172e-01
xvco.xr1.xsky130_fd_pr__res_xhigh_po_1p41.ra = 1.806612e-03
xvco.xr3.xsky130_fd_pr__res_xhigh_po_1p41.ra = 1.838376e-03
xvco.xr4.xsky130_fd_pr__res_xhigh_po_1p41.ra = 7.524406e-01
