Warning: m=xx on .subckt line will override multiplier m hierarchy!

 Reference value :  0.00000e+00Note: No ".plot", ".print", or ".fourier" lines; no simulations run

Note: Compatibility modes selected: hs a


Circuit: ** test bench for bgr

option SCALE: Scale is set to 1e-06 for instance and model parameters
Doing analysis at TEMP = 0.000000 and TNOM = 0.000000


No. of Data Rows : 1
iref = 8.144355e+01
iref = 8.144355e+01
m.xvco.xm2.msky130_fd_pr__pfet_g5v0d10v5#body = 1.800000e+00
m.xvco.xm2.msky130_fd_pr__pfet_g5v0d10v5#dbody = 1.800000e+00
m.xvco.xm2.msky130_fd_pr__pfet_g5v0d10v5#sbody = 1.800000e+00
m.xvco.xm13.msky130_fd_pr__pfet_g5v0d10v5#body = 1.800000e+00
m.xvco.xm13.msky130_fd_pr__pfet_g5v0d10v5#dbody = 1.800000e+00
m.xvco.xm13.msky130_fd_pr__pfet_g5v0d10v5#sbody = 1.800000e+00
m.xvco.xm14.msky130_fd_pr__pfet_g5v0d10v5#body = 1.800000e+00
m.xvco.xm14.msky130_fd_pr__pfet_g5v0d10v5#dbody = 1.800000e+00
m.xvco.xm14.msky130_fd_pr__pfet_g5v0d10v5#sbody = 1.800000e+00
m.xvco.xm15.msky130_fd_pr__pfet_g5v0d10v5#body = 1.800000e+00
m.xvco.xm15.msky130_fd_pr__pfet_g5v0d10v5#dbody = 1.800000e+00
m.xvco.xm15.msky130_fd_pr__pfet_g5v0d10v5#sbody = 1.800000e+00
m.xvco.xm16.msky130_fd_pr__pfet_g5v0d10v5#body = 1.800000e+00
m.xvco.xm16.msky130_fd_pr__pfet_g5v0d10v5#dbody = 1.800000e+00
m.xvco.xm16.msky130_fd_pr__pfet_g5v0d10v5#sbody = 1.800000e+00
m.xvco.xm17.msky130_fd_pr__pfet_g5v0d10v5#body = 1.800000e+00
m.xvco.xm17.msky130_fd_pr__pfet_g5v0d10v5#dbody = 1.800000e+00
m.xvco.xm17.msky130_fd_pr__pfet_g5v0d10v5#sbody = 1.800000e+00
m.xvco.xm18.msky130_fd_pr__pfet_g5v0d10v5#body = 1.800000e+00
m.xvco.xm18.msky130_fd_pr__pfet_g5v0d10v5#dbody = 1.800000e+00
m.xvco.xm18.msky130_fd_pr__pfet_g5v0d10v5#sbody = 1.800000e+00
m.xvco.xm19.msky130_fd_pr__nfet_g5v0d10v5#body = 1.070397e-11
m.xvco.xm19.msky130_fd_pr__nfet_g5v0d10v5#dbody = 2.675980e-11
m.xvco.xm19.msky130_fd_pr__nfet_g5v0d10v5#sbody = 5.352088e-12
m.xvco.xm20.msky130_fd_pr__nfet_g5v0d10v5#body = 1.142381e-11
m.xvco.xm20.msky130_fd_pr__nfet_g5v0d10v5#dbody = 2.855953e-11
m.xvco.xm20.msky130_fd_pr__nfet_g5v0d10v5#sbody = 5.711916e-12
m.xvco.xm21.msky130_fd_pr__nfet_g5v0d10v5#body = 8.661801e-12
m.xvco.xm21.msky130_fd_pr__nfet_g5v0d10v5#dbody = 2.165449e-11
m.xvco.xm21.msky130_fd_pr__nfet_g5v0d10v5#sbody = 4.330907e-12
m.xvco.xm22.msky130_fd_pr__pfet_g5v0d10v5#body = 1.800000e+00
m.xvco.xm22.msky130_fd_pr__pfet_g5v0d10v5#dbody = 1.800000e+00
m.xvco.xm22.msky130_fd_pr__pfet_g5v0d10v5#sbody = 1.800000e+00
m.xvco.xm23.msky130_fd_pr__nfet_g5v0d10v5#body = 2.328164e-11
m.xvco.xm23.msky130_fd_pr__nfet_g5v0d10v5#dbody = 5.661991e-11
m.xvco.xm23.msky130_fd_pr__nfet_g5v0d10v5#sbody = 1.164082e-11
m.xvco.xm24.msky130_fd_pr__pfet_g5v0d10v5#body = 1.800000e+00
m.xvco.xm24.msky130_fd_pr__pfet_g5v0d10v5#dbody = 1.800000e+00
m.xvco.xm24.msky130_fd_pr__pfet_g5v0d10v5#sbody = 1.800000e+00
out = 9.000000e-01
q.xvco.xq2.qsky130_fd_pr__pnp_05v5_w0p68l0p68#collcx = 7.232950e-05
q.xvco.xq3.qsky130_fd_pr__pnp_05v5_w0p68l0p68#collcx = 7.232950e-05
q.xvco.xq4.qsky130_fd_pr__pnp_05v5_w0p68l0p68#collcx = 7.232950e-05
q.xvco.xq5.qsky130_fd_pr__pnp_05v5_w0p68l0p68#collcx = 7.232950e-05
q.xvco.xq6.qsky130_fd_pr__pnp_05v5_w0p68l0p68#collcx = 7.232950e-05
q.xvco.xq7.qsky130_fd_pr__pnp_05v5_w0p68l0p68#collcx = 7.232950e-05
q.xvco.xq8.qsky130_fd_pr__pnp_05v5_w0p68l0p68#collcx = 7.232950e-05
q.xvco.xq9.qsky130_fd_pr__pnp_05v5_w0p68l0p68#collcx = 7.232950e-05
q.xvco.xq10.qsky130_fd_pr__pnp_05v5_w0p68l0p68#collcx = 4.936697e-04
vdd = 1.800000e+00
vdd#branch = -1.62216e-04
vtuner#branch = 8.144355e-05
xvco.net1 = 8.563160e-01
xvco.net2 = 7.352096e-01
xvco.net3 = 7.696880e-01
xvco.net4 = 6.929431e-01
xvco.net5 = 1.625367e+00
xvco.net6 = 9.139042e-01
xvco.net7 = 1.799163e+00
xvco.vbe = 7.827950e-01
xvco.xr1.xsky130_fd_pr__res_xhigh_po_1p41.ra = 1.797471e-03
xvco.xr3.xsky130_fd_pr__res_xhigh_po_1p41.ra = 1.830085e-03
xvco.xr4.xsky130_fd_pr__res_xhigh_po_1p41.ra = 7.354785e-01
