Warning: m=xx on .subckt line will override multiplier m hierarchy!

 Reference value :  0.00000e+00Note: No ".plot", ".print", or ".fourier" lines; no simulations run

Note: Compatibility modes selected: hs a


Circuit: ** test bench for bgr

option SCALE: Scale is set to 1e-06 for instance and model parameters
Doing analysis at TEMP = 110.000000 and TNOM = 110.000000


No. of Data Rows : 1
iref = 8.059892e+01
iref = 8.059892e+01
m.xvco.xm2.msky130_fd_pr__pfet_g5v0d10v5#body = 1.980000e+00
m.xvco.xm2.msky130_fd_pr__pfet_g5v0d10v5#dbody = 1.980000e+00
m.xvco.xm2.msky130_fd_pr__pfet_g5v0d10v5#sbody = 1.980000e+00
m.xvco.xm13.msky130_fd_pr__pfet_g5v0d10v5#body = 1.980000e+00
m.xvco.xm13.msky130_fd_pr__pfet_g5v0d10v5#dbody = 1.980000e+00
m.xvco.xm13.msky130_fd_pr__pfet_g5v0d10v5#sbody = 1.980000e+00
m.xvco.xm14.msky130_fd_pr__pfet_g5v0d10v5#body = 1.980000e+00
m.xvco.xm14.msky130_fd_pr__pfet_g5v0d10v5#dbody = 1.980000e+00
m.xvco.xm14.msky130_fd_pr__pfet_g5v0d10v5#sbody = 1.980000e+00
m.xvco.xm15.msky130_fd_pr__pfet_g5v0d10v5#body = 1.980000e+00
m.xvco.xm15.msky130_fd_pr__pfet_g5v0d10v5#dbody = 1.980000e+00
m.xvco.xm15.msky130_fd_pr__pfet_g5v0d10v5#sbody = 1.980000e+00
m.xvco.xm16.msky130_fd_pr__pfet_g5v0d10v5#body = 1.980000e+00
m.xvco.xm16.msky130_fd_pr__pfet_g5v0d10v5#dbody = 1.980000e+00
m.xvco.xm16.msky130_fd_pr__pfet_g5v0d10v5#sbody = 1.980000e+00
m.xvco.xm17.msky130_fd_pr__pfet_g5v0d10v5#body = 1.980000e+00
m.xvco.xm17.msky130_fd_pr__pfet_g5v0d10v5#dbody = 1.980000e+00
m.xvco.xm17.msky130_fd_pr__pfet_g5v0d10v5#sbody = 1.980000e+00
m.xvco.xm18.msky130_fd_pr__pfet_g5v0d10v5#body = 1.980000e+00
m.xvco.xm18.msky130_fd_pr__pfet_g5v0d10v5#dbody = 1.980000e+00
m.xvco.xm18.msky130_fd_pr__pfet_g5v0d10v5#sbody = 1.980000e+00
m.xvco.xm19.msky130_fd_pr__nfet_g5v0d10v5#body = 2.672914e-11
m.xvco.xm19.msky130_fd_pr__nfet_g5v0d10v5#dbody = 6.682100e-11
m.xvco.xm19.msky130_fd_pr__nfet_g5v0d10v5#sbody = 1.336641e-11
m.xvco.xm20.msky130_fd_pr__nfet_g5v0d10v5#body = 2.096745e-11
m.xvco.xm20.msky130_fd_pr__nfet_g5v0d10v5#dbody = 5.241842e-11
m.xvco.xm20.msky130_fd_pr__nfet_g5v0d10v5#sbody = 1.048394e-11
m.xvco.xm21.msky130_fd_pr__nfet_g5v0d10v5#body = 1.838465e-11
m.xvco.xm21.msky130_fd_pr__nfet_g5v0d10v5#dbody = 4.596143e-11
m.xvco.xm21.msky130_fd_pr__nfet_g5v0d10v5#sbody = 9.192511e-12
m.xvco.xm22.msky130_fd_pr__pfet_g5v0d10v5#body = 1.980000e+00
m.xvco.xm22.msky130_fd_pr__pfet_g5v0d10v5#dbody = 1.980000e+00
m.xvco.xm22.msky130_fd_pr__pfet_g5v0d10v5#sbody = 1.980000e+00
m.xvco.xm23.msky130_fd_pr__nfet_g5v0d10v5#body = 3.808287e-11
m.xvco.xm23.msky130_fd_pr__nfet_g5v0d10v5#dbody = 9.070800e-11
m.xvco.xm23.msky130_fd_pr__nfet_g5v0d10v5#sbody = 1.904156e-11
m.xvco.xm24.msky130_fd_pr__pfet_g5v0d10v5#body = 1.980000e+00
m.xvco.xm24.msky130_fd_pr__pfet_g5v0d10v5#dbody = 1.980000e+00
m.xvco.xm24.msky130_fd_pr__pfet_g5v0d10v5#sbody = 1.980000e+00
out = 9.000000e-01
q.xvco.xq2.qsky130_fd_pr__pnp_05v5_w0p68l0p68#collcx = 1.415998e-04
q.xvco.xq3.qsky130_fd_pr__pnp_05v5_w0p68l0p68#collcx = 1.415998e-04
q.xvco.xq4.qsky130_fd_pr__pnp_05v5_w0p68l0p68#collcx = 1.415998e-04
q.xvco.xq5.qsky130_fd_pr__pnp_05v5_w0p68l0p68#collcx = 1.415998e-04
q.xvco.xq6.qsky130_fd_pr__pnp_05v5_w0p68l0p68#collcx = 1.415998e-04
q.xvco.xq7.qsky130_fd_pr__pnp_05v5_w0p68l0p68#collcx = 1.415998e-04
q.xvco.xq8.qsky130_fd_pr__pnp_05v5_w0p68l0p68#collcx = 1.415998e-04
q.xvco.xq9.qsky130_fd_pr__pnp_05v5_w0p68l0p68#collcx = 1.415998e-04
q.xvco.xq10.qsky130_fd_pr__pnp_05v5_w0p68l0p68#collcx = 1.027328e-03
vdd = 1.980000e+00
vdd#branch = -1.42734e-04
vtuner#branch = 8.059892e-05
xvco.net1 = 1.238630e+00
xvco.net2 = 5.410792e-01
xvco.net3 = 5.973098e-01
xvco.net4 = 5.711346e-01
xvco.net5 = 1.333318e+00
xvco.net6 = 7.777577e-01
xvco.net7 = 1.967033e+00
xvco.vbe = 6.117087e-01
xvco.xr1.xsky130_fd_pr__res_xhigh_po_1p41.ra = 1.597210e-03
xvco.xr3.xsky130_fd_pr__res_xhigh_po_1p41.ra = 1.637598e-03
xvco.xr4.xsky130_fd_pr__res_xhigh_po_1p41.ra = 5.415880e-01
