Warning: m=xx on .subckt line will override multiplier m hierarchy!

Note: Starting dynamic gmin stepping
Trying gmin =   1.0000E-03 Note: One successful gmin step
Trying gmin =   1.0000E-04 Note: One successful gmin step
Trying gmin =   1.0000E-05 Note: One successful gmin step
Trying gmin =   1.0000E-06 Note: One successful gmin step
Trying gmin =   1.0000E-07 Note: One successful gmin step
Trying gmin =   1.0000E-08 Note: One successful gmin step
Trying gmin =   1.0000E-09 Note: One successful gmin step
Trying gmin =   1.0000E-10 Note: One successful gmin step
Trying gmin =   1.0000E-11 Note: One successful gmin step
Trying gmin =   3.1623E-12 Note: One successful gmin step
Trying gmin =   1.0000E-12 Note: One successful gmin step
Note: Dynamic gmin stepping completed
 Reference value :  0.00000e+00Note: No ".plot", ".print", or ".fourier" lines; no simulations run

Note: Compatibility modes selected: hs a


Circuit: ** test bench for bgr

option SCALE: Scale is set to 1e-06 for instance and model parameters
Doing analysis at TEMP = 10.000000 and TNOM = 10.000000


No. of Data Rows : 1
iref = 8.143706e+01
iref = 8.143706e+01
m.xvco.xm2.msky130_fd_pr__pfet_g5v0d10v5#body = 1.800000e+00
m.xvco.xm2.msky130_fd_pr__pfet_g5v0d10v5#dbody = 1.800000e+00
m.xvco.xm2.msky130_fd_pr__pfet_g5v0d10v5#sbody = 1.800000e+00
m.xvco.xm13.msky130_fd_pr__pfet_g5v0d10v5#body = 1.800000e+00
m.xvco.xm13.msky130_fd_pr__pfet_g5v0d10v5#dbody = 1.800000e+00
m.xvco.xm13.msky130_fd_pr__pfet_g5v0d10v5#sbody = 1.800000e+00
m.xvco.xm14.msky130_fd_pr__pfet_g5v0d10v5#body = 1.800000e+00
m.xvco.xm14.msky130_fd_pr__pfet_g5v0d10v5#dbody = 1.800000e+00
m.xvco.xm14.msky130_fd_pr__pfet_g5v0d10v5#sbody = 1.800000e+00
m.xvco.xm15.msky130_fd_pr__pfet_g5v0d10v5#body = 1.800000e+00
m.xvco.xm15.msky130_fd_pr__pfet_g5v0d10v5#dbody = 1.800000e+00
m.xvco.xm15.msky130_fd_pr__pfet_g5v0d10v5#sbody = 1.800000e+00
m.xvco.xm16.msky130_fd_pr__pfet_g5v0d10v5#body = 1.800000e+00
m.xvco.xm16.msky130_fd_pr__pfet_g5v0d10v5#dbody = 1.800000e+00
m.xvco.xm16.msky130_fd_pr__pfet_g5v0d10v5#sbody = 1.800000e+00
m.xvco.xm17.msky130_fd_pr__pfet_g5v0d10v5#body = 1.800000e+00
m.xvco.xm17.msky130_fd_pr__pfet_g5v0d10v5#dbody = 1.800000e+00
m.xvco.xm17.msky130_fd_pr__pfet_g5v0d10v5#sbody = 1.800000e+00
m.xvco.xm18.msky130_fd_pr__pfet_g5v0d10v5#body = 1.800000e+00
m.xvco.xm18.msky130_fd_pr__pfet_g5v0d10v5#dbody = 1.800000e+00
m.xvco.xm18.msky130_fd_pr__pfet_g5v0d10v5#sbody = 1.800000e+00
m.xvco.xm19.msky130_fd_pr__nfet_g5v0d10v5#body = 1.093192e-11
m.xvco.xm19.msky130_fd_pr__nfet_g5v0d10v5#dbody = 2.732969e-11
m.xvco.xm19.msky130_fd_pr__nfet_g5v0d10v5#sbody = 5.466062e-12
m.xvco.xm20.msky130_fd_pr__nfet_g5v0d10v5#body = 1.129183e-11
m.xvco.xm20.msky130_fd_pr__nfet_g5v0d10v5#dbody = 2.822957e-11
m.xvco.xm20.msky130_fd_pr__nfet_g5v0d10v5#sbody = 5.645924e-12
m.xvco.xm21.msky130_fd_pr__nfet_g5v0d10v5#body = 8.528063e-12
m.xvco.xm21.msky130_fd_pr__nfet_g5v0d10v5#dbody = 2.132015e-11
m.xvco.xm21.msky130_fd_pr__nfet_g5v0d10v5#sbody = 4.264039e-12
m.xvco.xm22.msky130_fd_pr__pfet_g5v0d10v5#body = 1.800000e+00
m.xvco.xm22.msky130_fd_pr__pfet_g5v0d10v5#dbody = 1.800000e+00
m.xvco.xm22.msky130_fd_pr__pfet_g5v0d10v5#sbody = 1.800000e+00
m.xvco.xm23.msky130_fd_pr__nfet_g5v0d10v5#body = 2.344786e-11
m.xvco.xm23.msky130_fd_pr__nfet_g5v0d10v5#dbody = 5.669477e-11
m.xvco.xm23.msky130_fd_pr__nfet_g5v0d10v5#sbody = 1.172393e-11
m.xvco.xm24.msky130_fd_pr__pfet_g5v0d10v5#body = 1.800000e+00
m.xvco.xm24.msky130_fd_pr__pfet_g5v0d10v5#dbody = 1.800000e+00
m.xvco.xm24.msky130_fd_pr__pfet_g5v0d10v5#sbody = 1.800000e+00
out = 9.000000e-01
q.xvco.xq2.qsky130_fd_pr__pnp_05v5_w0p68l0p68#collcx = 7.770814e-05
q.xvco.xq3.qsky130_fd_pr__pnp_05v5_w0p68l0p68#collcx = 7.770814e-05
q.xvco.xq4.qsky130_fd_pr__pnp_05v5_w0p68l0p68#collcx = 7.770814e-05
q.xvco.xq5.qsky130_fd_pr__pnp_05v5_w0p68l0p68#collcx = 7.770814e-05
q.xvco.xq6.qsky130_fd_pr__pnp_05v5_w0p68l0p68#collcx = 7.770814e-05
q.xvco.xq7.qsky130_fd_pr__pnp_05v5_w0p68l0p68#collcx = 7.770814e-05
q.xvco.xq8.qsky130_fd_pr__pnp_05v5_w0p68l0p68#collcx = 7.770814e-05
q.xvco.xq9.qsky130_fd_pr__pnp_05v5_w0p68l0p68#collcx = 7.770814e-05
q.xvco.xq10.qsky130_fd_pr__pnp_05v5_w0p68l0p68#collcx = 5.340760e-04
vdd = 1.800000e+00
vdd#branch = -1.60266e-04
vtuner#branch = 8.143706e-05
xvco.net1 = 8.745484e-01
xvco.net2 = 7.180309e-01
xvco.net3 = 7.543303e-01
xvco.net4 = 6.822402e-01
xvco.net5 = 1.596681e+00
xvco.net6 = 9.033417e-01
xvco.net7 = 1.798829e+00
xvco.vbe = 7.676493e-01
xvco.xr1.xsky130_fd_pr__res_xhigh_po_1p41.ra = 1.786532e-03
xvco.xr3.xsky130_fd_pr__res_xhigh_po_1p41.ra = 1.820101e-03
xvco.xr4.xsky130_fd_pr__res_xhigh_po_1p41.ra = 7.183183e-01
