Warning: m=xx on .subckt line will override multiplier m hierarchy!

Note: Starting dynamic gmin stepping
Trying gmin =   1.0000E-03 Note: One successful gmin step
Trying gmin =   1.0000E-04 Note: One successful gmin step
Trying gmin =   1.0000E-05 Note: One successful gmin step
Trying gmin =   1.0000E-06 Note: One successful gmin step
Trying gmin =   1.0000E-07 Note: One successful gmin step
Trying gmin =   1.0000E-08 Note: One successful gmin step
Trying gmin =   1.0000E-09 Note: One successful gmin step
Trying gmin =   1.0000E-10 Warning: Further gmin increment
Trying gmin =   5.6234E-10 Warning: Further gmin increment
Trying gmin =   8.6596E-10 Note: One successful gmin step
Trying gmin =   6.9783E-10 Warning: Further gmin increment
Trying gmin =   8.2047E-10 Note: One successful gmin step
Trying gmin =   7.5667E-10 Warning: Further gmin increment
Trying gmin =   8.0403E-10 Warning: Further gmin increment
Trying gmin =   8.1633E-10 Note: One successful gmin step
Trying gmin =   8.1016E-10 Warning: Further gmin increment
Trying gmin =   8.1478E-10 Warning: Further gmin increment
Trying gmin =   8.1594E-10 Note: One successful gmin step
Trying gmin =   8.1536E-10 Warning: Further gmin increment
Trying gmin =   8.1580E-10 Note: One successful gmin step
Trying gmin =   8.1558E-10 Warning: Further gmin increment
Trying gmin =   8.1574E-10 Note: One successful gmin step
Trying gmin =   8.1566E-10 Warning: Further gmin increment
Trying gmin =   8.1572E-10 Warning: Last gmin step failed
Warning: Dynamic gmin stepping failed
Note: Starting true gmin stepping
Trying gmin =   1.0000E-03 Note: One successful gmin step
Trying gmin =   1.0000E-04 Note: One successful gmin step
Trying gmin =   1.0000E-05 Note: One successful gmin step
Trying gmin =   1.0000E-06 Note: One successful gmin step
Trying gmin =   1.0000E-07 Note: One successful gmin step
Trying gmin =   1.0000E-08 Note: One successful gmin step
Trying gmin =   1.0000E-09 Note: One successful gmin step
Trying gmin =   1.0000E-10 Note: One successful gmin step
Trying gmin =   1.0000E-11 Note: One successful gmin step
Trying gmin =   1.0000E-12 Note: One successful gmin step
Trying gmin =   1.0000E-12 Note: One successful gmin step
Note: True gmin stepping completed
 Reference value :  0.00000e+00Note: No ".plot", ".print", or ".fourier" lines; no simulations run

Note: Compatibility modes selected: hs a


Circuit: ** test bench for bgr

option SCALE: Scale is set to 1e-06 for instance and model parameters
Doing analysis at TEMP = 100.000000 and TNOM = 100.000000


No. of Data Rows : 1
iref = 7.927081e+01
iref = 7.927081e+01
m.xvco.xm2.msky130_fd_pr__pfet_g5v0d10v5#body = 1.800000e+00
m.xvco.xm2.msky130_fd_pr__pfet_g5v0d10v5#dbody = 1.800000e+00
m.xvco.xm2.msky130_fd_pr__pfet_g5v0d10v5#sbody = 1.800000e+00
m.xvco.xm13.msky130_fd_pr__pfet_g5v0d10v5#body = 1.800000e+00
m.xvco.xm13.msky130_fd_pr__pfet_g5v0d10v5#dbody = 1.800000e+00
m.xvco.xm13.msky130_fd_pr__pfet_g5v0d10v5#sbody = 1.800000e+00
m.xvco.xm14.msky130_fd_pr__pfet_g5v0d10v5#body = 1.800000e+00
m.xvco.xm14.msky130_fd_pr__pfet_g5v0d10v5#dbody = 1.800000e+00
m.xvco.xm14.msky130_fd_pr__pfet_g5v0d10v5#sbody = 1.800000e+00
m.xvco.xm15.msky130_fd_pr__pfet_g5v0d10v5#body = 1.800000e+00
m.xvco.xm15.msky130_fd_pr__pfet_g5v0d10v5#dbody = 1.800000e+00
m.xvco.xm15.msky130_fd_pr__pfet_g5v0d10v5#sbody = 1.800000e+00
m.xvco.xm16.msky130_fd_pr__pfet_g5v0d10v5#body = 1.800000e+00
m.xvco.xm16.msky130_fd_pr__pfet_g5v0d10v5#dbody = 1.800000e+00
m.xvco.xm16.msky130_fd_pr__pfet_g5v0d10v5#sbody = 1.800000e+00
m.xvco.xm17.msky130_fd_pr__pfet_g5v0d10v5#body = 1.800000e+00
m.xvco.xm17.msky130_fd_pr__pfet_g5v0d10v5#dbody = 1.800000e+00
m.xvco.xm17.msky130_fd_pr__pfet_g5v0d10v5#sbody = 1.800000e+00
m.xvco.xm18.msky130_fd_pr__pfet_g5v0d10v5#body = 1.800000e+00
m.xvco.xm18.msky130_fd_pr__pfet_g5v0d10v5#dbody = 1.800000e+00
m.xvco.xm18.msky130_fd_pr__pfet_g5v0d10v5#sbody = 1.800000e+00
m.xvco.xm19.msky130_fd_pr__nfet_g5v0d10v5#body = 1.740183e-11
m.xvco.xm19.msky130_fd_pr__nfet_g5v0d10v5#dbody = 4.350373e-11
m.xvco.xm19.msky130_fd_pr__nfet_g5v0d10v5#sbody = 8.701758e-12
m.xvco.xm20.msky130_fd_pr__nfet_g5v0d10v5#body = 1.447765e-11
m.xvco.xm20.msky130_fd_pr__nfet_g5v0d10v5#dbody = 3.619404e-11
m.xvco.xm20.msky130_fd_pr__nfet_g5v0d10v5#sbody = 7.238917e-12
m.xvco.xm21.msky130_fd_pr__nfet_g5v0d10v5#body = 1.168267e-11
m.xvco.xm21.msky130_fd_pr__nfet_g5v0d10v5#dbody = 2.920660e-11
m.xvco.xm21.msky130_fd_pr__nfet_g5v0d10v5#sbody = 5.841413e-12
m.xvco.xm22.msky130_fd_pr__pfet_g5v0d10v5#body = 1.800000e+00
m.xvco.xm22.msky130_fd_pr__pfet_g5v0d10v5#dbody = 1.800000e+00
m.xvco.xm22.msky130_fd_pr__pfet_g5v0d10v5#sbody = 1.800000e+00
m.xvco.xm23.msky130_fd_pr__nfet_g5v0d10v5#body = 2.761965e-11
m.xvco.xm23.msky130_fd_pr__nfet_g5v0d10v5#dbody = 6.754181e-11
m.xvco.xm23.msky130_fd_pr__nfet_g5v0d10v5#sbody = 1.380985e-11
m.xvco.xm24.msky130_fd_pr__pfet_g5v0d10v5#body = 1.800000e+00
m.xvco.xm24.msky130_fd_pr__pfet_g5v0d10v5#dbody = 1.800000e+00
m.xvco.xm24.msky130_fd_pr__pfet_g5v0d10v5#sbody = 1.800000e+00
out = 9.000000e-01
q.xvco.xq2.qsky130_fd_pr__pnp_05v5_w0p68l0p68#collcx = 1.296886e-04
q.xvco.xq3.qsky130_fd_pr__pnp_05v5_w0p68l0p68#collcx = 1.296886e-04
q.xvco.xq4.qsky130_fd_pr__pnp_05v5_w0p68l0p68#collcx = 1.296886e-04
q.xvco.xq5.qsky130_fd_pr__pnp_05v5_w0p68l0p68#collcx = 1.296886e-04
q.xvco.xq6.qsky130_fd_pr__pnp_05v5_w0p68l0p68#collcx = 1.296886e-04
q.xvco.xq7.qsky130_fd_pr__pnp_05v5_w0p68l0p68#collcx = 1.296886e-04
q.xvco.xq8.qsky130_fd_pr__pnp_05v5_w0p68l0p68#collcx = 1.296886e-04
q.xvco.xq9.qsky130_fd_pr__pnp_05v5_w0p68l0p68#collcx = 1.296886e-04
q.xvco.xq10.qsky130_fd_pr__pnp_05v5_w0p68l0p68#collcx = 9.234556e-04
vdd = 1.800000e+00
vdd#branch = -1.43682e-04
vtuner#branch = 7.927081e-05
xvco.net1 = 1.037372e+00
xvco.net2 = 5.578624e-01
xvco.net3 = 6.100527e-01
xvco.net4 = 5.798670e-01
xvco.net5 = 1.328082e+00
xvco.net6 = 8.034652e-01
xvco.net7 = 1.794536e+00
xvco.vbe = 6.256998e-01
xvco.xr1.xsky130_fd_pr__res_xhigh_po_1p41.ra = 1.614117e-03
xvco.xr3.xsky130_fd_pr__res_xhigh_po_1p41.ra = 1.657604e-03
xvco.xr4.xsky130_fd_pr__res_xhigh_po_1p41.ra = 5.583292e-01
