Warning: m=xx on .subckt line will override multiplier m hierarchy!

Note: Starting dynamic gmin stepping
Trying gmin =   1.0000E-03 Note: One successful gmin step
Trying gmin =   1.0000E-04 Note: One successful gmin step
Trying gmin =   1.0000E-05 Note: One successful gmin step
Trying gmin =   1.0000E-06 Note: One successful gmin step
Trying gmin =   1.0000E-07 Note: One successful gmin step
Trying gmin =   1.0000E-08 Note: One successful gmin step
Trying gmin =   1.0000E-09 Note: One successful gmin step
Trying gmin =   1.0000E-10 Note: One successful gmin step
Trying gmin =   1.0000E-11 Warning: Further gmin increment
Trying gmin =   5.6234E-11 Note: One successful gmin step
Trying gmin =   2.3714E-11 Warning: Further gmin increment
Trying gmin =   4.5316E-11 Warning: Further gmin increment
Trying gmin =   5.3280E-11 Note: One successful gmin step
Trying gmin =   4.9137E-11 Note: One successful gmin step
Trying gmin =   4.7188E-11 Note: One successful gmin step
Trying gmin =   4.4408E-11 Note: One successful gmin step
Trying gmin =   4.0542E-11 Note: One successful gmin step
Trying gmin =   3.5366E-11 Note: One successful gmin step
Trying gmin =   2.8813E-11 Note: One successful gmin step
Trying gmin =   2.1189E-11 Note: One successful gmin step
Trying gmin =   1.3362E-11 Note: One successful gmin step
Trying gmin =   6.6919E-12 Note: One successful gmin step
Trying gmin =   2.3716E-12 Note: One successful gmin step
Trying gmin =   1.0000E-12 Note: One successful gmin step
Note: Dynamic gmin stepping completed
 Reference value :  0.00000e+00Note: No ".plot", ".print", or ".fourier" lines; no simulations run

Note: Compatibility modes selected: hs a


Circuit: ** test bench for bgr

option SCALE: Scale is set to 1e-06 for instance and model parameters
Doing analysis at TEMP = 20.000000 and TNOM = 20.000000


No. of Data Rows : 1
iref = 8.284400e+01
iref = 8.284400e+01
m.xvco.xm2.msky130_fd_pr__pfet_g5v0d10v5#body = 1.980000e+00
m.xvco.xm2.msky130_fd_pr__pfet_g5v0d10v5#dbody = 1.980000e+00
m.xvco.xm2.msky130_fd_pr__pfet_g5v0d10v5#sbody = 1.980000e+00
m.xvco.xm13.msky130_fd_pr__pfet_g5v0d10v5#body = 1.980000e+00
m.xvco.xm13.msky130_fd_pr__pfet_g5v0d10v5#dbody = 1.980000e+00
m.xvco.xm13.msky130_fd_pr__pfet_g5v0d10v5#sbody = 1.980000e+00
m.xvco.xm14.msky130_fd_pr__pfet_g5v0d10v5#body = 1.980000e+00
m.xvco.xm14.msky130_fd_pr__pfet_g5v0d10v5#dbody = 1.980000e+00
m.xvco.xm14.msky130_fd_pr__pfet_g5v0d10v5#sbody = 1.980000e+00
m.xvco.xm15.msky130_fd_pr__pfet_g5v0d10v5#body = 1.980000e+00
m.xvco.xm15.msky130_fd_pr__pfet_g5v0d10v5#dbody = 1.980000e+00
m.xvco.xm15.msky130_fd_pr__pfet_g5v0d10v5#sbody = 1.980000e+00
m.xvco.xm16.msky130_fd_pr__pfet_g5v0d10v5#body = 1.980000e+00
m.xvco.xm16.msky130_fd_pr__pfet_g5v0d10v5#dbody = 1.980000e+00
m.xvco.xm16.msky130_fd_pr__pfet_g5v0d10v5#sbody = 1.980000e+00
m.xvco.xm17.msky130_fd_pr__pfet_g5v0d10v5#body = 1.980000e+00
m.xvco.xm17.msky130_fd_pr__pfet_g5v0d10v5#dbody = 1.980000e+00
m.xvco.xm17.msky130_fd_pr__pfet_g5v0d10v5#sbody = 1.980000e+00
m.xvco.xm18.msky130_fd_pr__pfet_g5v0d10v5#body = 1.980000e+00
m.xvco.xm18.msky130_fd_pr__pfet_g5v0d10v5#dbody = 1.980000e+00
m.xvco.xm18.msky130_fd_pr__pfet_g5v0d10v5#sbody = 1.980000e+00
m.xvco.xm19.msky130_fd_pr__nfet_g5v0d10v5#body = 1.345272e-11
m.xvco.xm19.msky130_fd_pr__nfet_g5v0d10v5#dbody = 3.363170e-11
m.xvco.xm19.msky130_fd_pr__nfet_g5v0d10v5#sbody = 6.726454e-12
m.xvco.xm20.msky130_fd_pr__nfet_g5v0d10v5#body = 1.097610e-11
m.xvco.xm20.msky130_fd_pr__nfet_g5v0d10v5#dbody = 2.744024e-11
m.xvco.xm20.msky130_fd_pr__nfet_g5v0d10v5#sbody = 5.488058e-12
m.xvco.xm21.msky130_fd_pr__nfet_g5v0d10v5#body = 8.437199e-12
m.xvco.xm21.msky130_fd_pr__nfet_g5v0d10v5#dbody = 2.109299e-11
m.xvco.xm21.msky130_fd_pr__nfet_g5v0d10v5#sbody = 4.218607e-12
m.xvco.xm22.msky130_fd_pr__pfet_g5v0d10v5#body = 1.980000e+00
m.xvco.xm22.msky130_fd_pr__pfet_g5v0d10v5#dbody = 1.980000e+00
m.xvco.xm22.msky130_fd_pr__pfet_g5v0d10v5#sbody = 1.980000e+00
m.xvco.xm23.msky130_fd_pr__nfet_g5v0d10v5#body = 3.200106e-11
m.xvco.xm23.msky130_fd_pr__nfet_g5v0d10v5#dbody = 6.532445e-11
m.xvco.xm23.msky130_fd_pr__nfet_g5v0d10v5#sbody = 1.600053e-11
m.xvco.xm24.msky130_fd_pr__pfet_g5v0d10v5#body = 1.980000e+00
m.xvco.xm24.msky130_fd_pr__pfet_g5v0d10v5#dbody = 1.980000e+00
m.xvco.xm24.msky130_fd_pr__pfet_g5v0d10v5#sbody = 1.980000e+00
out = 9.000000e-01
q.xvco.xq2.qsky130_fd_pr__pnp_05v5_w0p68l0p68#collcx = 8.779497e-05
q.xvco.xq3.qsky130_fd_pr__pnp_05v5_w0p68l0p68#collcx = 8.779497e-05
q.xvco.xq4.qsky130_fd_pr__pnp_05v5_w0p68l0p68#collcx = 8.779497e-05
q.xvco.xq5.qsky130_fd_pr__pnp_05v5_w0p68l0p68#collcx = 8.779497e-05
q.xvco.xq6.qsky130_fd_pr__pnp_05v5_w0p68l0p68#collcx = 8.779497e-05
q.xvco.xq7.qsky130_fd_pr__pnp_05v5_w0p68l0p68#collcx = 8.779497e-05
q.xvco.xq8.qsky130_fd_pr__pnp_05v5_w0p68l0p68#collcx = 8.779497e-05
q.xvco.xq9.qsky130_fd_pr__pnp_05v5_w0p68l0p68#collcx = 8.779497e-05
q.xvco.xq10.qsky130_fd_pr__pnp_05v5_w0p68l0p68#collcx = 6.221470e-04
vdd = 1.980000e+00
vdd#branch = -1.58088e-04
vtuner#branch = 8.284400e-05
xvco.net1 = 1.076194e+00
xvco.net2 = 7.021250e-01
xvco.net3 = 7.423449e-01
xvco.net4 = 6.749526e-01
xvco.net5 = 1.606160e+00
xvco.net6 = 8.780646e-01
xvco.net7 = 1.972934e+00
xvco.vbe = 7.545035e-01
xvco.xr1.xsky130_fd_pr__res_xhigh_po_1p41.ra = 1.783004e-03
xvco.xr3.xsky130_fd_pr__res_xhigh_po_1p41.ra = 1.814047e-03
xvco.xr4.xsky130_fd_pr__res_xhigh_po_1p41.ra = 7.024483e-01
