Warning: m=xx on .subckt line will override multiplier m hierarchy!

 Reference value :  0.00000e+00Note: No ".plot", ".print", or ".fourier" lines; no simulations run

Note: Compatibility modes selected: hs a


Circuit: ** test bench for bgr

option SCALE: Scale is set to 1e-06 for instance and model parameters
Doing analysis at TEMP = 50.000000 and TNOM = 50.000000


No. of Data Rows : 1
iref = 8.091262e+01
iref = 8.091262e+01
m.xvco.xm2.msky130_fd_pr__pfet_g5v0d10v5#body = 1.800000e+00
m.xvco.xm2.msky130_fd_pr__pfet_g5v0d10v5#dbody = 1.800000e+00
m.xvco.xm2.msky130_fd_pr__pfet_g5v0d10v5#sbody = 1.800000e+00
m.xvco.xm13.msky130_fd_pr__pfet_g5v0d10v5#body = 1.800000e+00
m.xvco.xm13.msky130_fd_pr__pfet_g5v0d10v5#dbody = 1.800000e+00
m.xvco.xm13.msky130_fd_pr__pfet_g5v0d10v5#sbody = 1.800000e+00
m.xvco.xm14.msky130_fd_pr__pfet_g5v0d10v5#body = 1.800000e+00
m.xvco.xm14.msky130_fd_pr__pfet_g5v0d10v5#dbody = 1.800000e+00
m.xvco.xm14.msky130_fd_pr__pfet_g5v0d10v5#sbody = 1.800000e+00
m.xvco.xm15.msky130_fd_pr__pfet_g5v0d10v5#body = 1.800000e+00
m.xvco.xm15.msky130_fd_pr__pfet_g5v0d10v5#dbody = 1.800000e+00
m.xvco.xm15.msky130_fd_pr__pfet_g5v0d10v5#sbody = 1.800000e+00
m.xvco.xm16.msky130_fd_pr__pfet_g5v0d10v5#body = 1.800000e+00
m.xvco.xm16.msky130_fd_pr__pfet_g5v0d10v5#dbody = 1.800000e+00
m.xvco.xm16.msky130_fd_pr__pfet_g5v0d10v5#sbody = 1.800000e+00
m.xvco.xm17.msky130_fd_pr__pfet_g5v0d10v5#body = 1.800000e+00
m.xvco.xm17.msky130_fd_pr__pfet_g5v0d10v5#dbody = 1.800000e+00
m.xvco.xm17.msky130_fd_pr__pfet_g5v0d10v5#sbody = 1.800000e+00
m.xvco.xm18.msky130_fd_pr__pfet_g5v0d10v5#body = 1.800000e+00
m.xvco.xm18.msky130_fd_pr__pfet_g5v0d10v5#dbody = 1.800000e+00
m.xvco.xm18.msky130_fd_pr__pfet_g5v0d10v5#sbody = 1.800000e+00
m.xvco.xm19.msky130_fd_pr__nfet_g5v0d10v5#body = 1.185662e-11
m.xvco.xm19.msky130_fd_pr__nfet_g5v0d10v5#dbody = 2.964144e-11
m.xvco.xm19.msky130_fd_pr__nfet_g5v0d10v5#sbody = 5.928401e-12
m.xvco.xm20.msky130_fd_pr__nfet_g5v0d10v5#body = 1.076971e-11
m.xvco.xm20.msky130_fd_pr__nfet_g5v0d10v5#dbody = 2.692427e-11
m.xvco.xm20.msky130_fd_pr__nfet_g5v0d10v5#sbody = 5.384865e-12
m.xvco.xm21.msky130_fd_pr__nfet_g5v0d10v5#body = 7.987153e-12
m.xvco.xm21.msky130_fd_pr__nfet_g5v0d10v5#dbody = 1.996787e-11
m.xvco.xm21.msky130_fd_pr__nfet_g5v0d10v5#sbody = 3.993584e-12
m.xvco.xm22.msky130_fd_pr__pfet_g5v0d10v5#body = 1.800000e+00
m.xvco.xm22.msky130_fd_pr__pfet_g5v0d10v5#dbody = 1.800000e+00
m.xvco.xm22.msky130_fd_pr__pfet_g5v0d10v5#sbody = 1.800000e+00
m.xvco.xm23.msky130_fd_pr__nfet_g5v0d10v5#body = 2.367096e-11
m.xvco.xm23.msky130_fd_pr__nfet_g5v0d10v5#dbody = 5.679995e-11
m.xvco.xm23.msky130_fd_pr__nfet_g5v0d10v5#sbody = 1.183548e-11
m.xvco.xm24.msky130_fd_pr__pfet_g5v0d10v5#body = 1.800000e+00
m.xvco.xm24.msky130_fd_pr__pfet_g5v0d10v5#dbody = 1.800000e+00
m.xvco.xm24.msky130_fd_pr__pfet_g5v0d10v5#sbody = 1.800000e+00
out = 9.000000e-01
q.xvco.xq2.qsky130_fd_pr__pnp_05v5_w0p68l0p68#collcx = 9.990529e-05
q.xvco.xq3.qsky130_fd_pr__pnp_05v5_w0p68l0p68#collcx = 9.990529e-05
q.xvco.xq4.qsky130_fd_pr__pnp_05v5_w0p68l0p68#collcx = 9.990529e-05
q.xvco.xq5.qsky130_fd_pr__pnp_05v5_w0p68l0p68#collcx = 9.990529e-05
q.xvco.xq6.qsky130_fd_pr__pnp_05v5_w0p68l0p68#collcx = 9.990529e-05
q.xvco.xq7.qsky130_fd_pr__pnp_05v5_w0p68l0p68#collcx = 9.990529e-05
q.xvco.xq8.qsky130_fd_pr__pnp_05v5_w0p68l0p68#collcx = 9.990529e-05
q.xvco.xq9.qsky130_fd_pr__pnp_05v5_w0p68l0p68#collcx = 9.990529e-05
q.xvco.xq10.qsky130_fd_pr__pnp_05v5_w0p68l0p68#collcx = 7.002358e-04
vdd = 1.800000e+00
vdd#branch = -1.52722e-04
vtuner#branch = 8.091262e-05
xvco.net1 = 9.470503e-01
xvco.net2 = 6.478616e-01
xvco.net3 = 6.912401e-01
xvco.net4 = 6.374938e-01
xvco.net5 = 1.479006e+00
xvco.net6 = 8.600986e-01
xvco.net7 = 1.797101e+00
xvco.vbe = 7.055459e-01
xvco.xr1.xsky130_fd_pr__res_xhigh_po_1p41.ra = 1.726175e-03
xvco.xr3.xsky130_fd_pr__res_xhigh_po_1p41.ra = 1.763987e-03
xvco.xr4.xsky130_fd_pr__res_xhigh_po_1p41.ra = 6.482256e-01
