Warning: m=xx on .subckt line will override multiplier m hierarchy!

 Reference value :  0.00000e+00Note: No ".plot", ".print", or ".fourier" lines; no simulations run

Note: Compatibility modes selected: hs a


Circuit: ** test bench for bgr

option SCALE: Scale is set to 1e-06 for instance and model parameters
Doing analysis at TEMP = 60.000000 and TNOM = 60.000000


No. of Data Rows : 1
iref = 8.226113e+01
iref = 8.226113e+01
m.xvco.xm2.msky130_fd_pr__pfet_g5v0d10v5#body = 1.980000e+00
m.xvco.xm2.msky130_fd_pr__pfet_g5v0d10v5#dbody = 1.980000e+00
m.xvco.xm2.msky130_fd_pr__pfet_g5v0d10v5#sbody = 1.980000e+00
m.xvco.xm13.msky130_fd_pr__pfet_g5v0d10v5#body = 1.980000e+00
m.xvco.xm13.msky130_fd_pr__pfet_g5v0d10v5#dbody = 1.980000e+00
m.xvco.xm13.msky130_fd_pr__pfet_g5v0d10v5#sbody = 1.980000e+00
m.xvco.xm14.msky130_fd_pr__pfet_g5v0d10v5#body = 1.980000e+00
m.xvco.xm14.msky130_fd_pr__pfet_g5v0d10v5#dbody = 1.980000e+00
m.xvco.xm14.msky130_fd_pr__pfet_g5v0d10v5#sbody = 1.980000e+00
m.xvco.xm15.msky130_fd_pr__pfet_g5v0d10v5#body = 1.980000e+00
m.xvco.xm15.msky130_fd_pr__pfet_g5v0d10v5#dbody = 1.980000e+00
m.xvco.xm15.msky130_fd_pr__pfet_g5v0d10v5#sbody = 1.980000e+00
m.xvco.xm16.msky130_fd_pr__pfet_g5v0d10v5#body = 1.980000e+00
m.xvco.xm16.msky130_fd_pr__pfet_g5v0d10v5#dbody = 1.980000e+00
m.xvco.xm16.msky130_fd_pr__pfet_g5v0d10v5#sbody = 1.980000e+00
m.xvco.xm17.msky130_fd_pr__pfet_g5v0d10v5#body = 1.980000e+00
m.xvco.xm17.msky130_fd_pr__pfet_g5v0d10v5#dbody = 1.980000e+00
m.xvco.xm17.msky130_fd_pr__pfet_g5v0d10v5#sbody = 1.980000e+00
m.xvco.xm18.msky130_fd_pr__pfet_g5v0d10v5#body = 1.980000e+00
m.xvco.xm18.msky130_fd_pr__pfet_g5v0d10v5#dbody = 1.980000e+00
m.xvco.xm18.msky130_fd_pr__pfet_g5v0d10v5#sbody = 1.980000e+00
m.xvco.xm19.msky130_fd_pr__nfet_g5v0d10v5#body = 1.441856e-11
m.xvco.xm19.msky130_fd_pr__nfet_g5v0d10v5#dbody = 3.604628e-11
m.xvco.xm19.msky130_fd_pr__nfet_g5v0d10v5#sbody = 7.209373e-12
m.xvco.xm20.msky130_fd_pr__nfet_g5v0d10v5#body = 1.049548e-11
m.xvco.xm20.msky130_fd_pr__nfet_g5v0d10v5#dbody = 2.623869e-11
m.xvco.xm20.msky130_fd_pr__nfet_g5v0d10v5#sbody = 5.247750e-12
m.xvco.xm21.msky130_fd_pr__nfet_g5v0d10v5#body = 7.927691e-12
m.xvco.xm21.msky130_fd_pr__nfet_g5v0d10v5#dbody = 1.981922e-11
m.xvco.xm21.msky130_fd_pr__nfet_g5v0d10v5#sbody = 3.963854e-12
m.xvco.xm22.msky130_fd_pr__pfet_g5v0d10v5#body = 1.980000e+00
m.xvco.xm22.msky130_fd_pr__pfet_g5v0d10v5#dbody = 1.980000e+00
m.xvco.xm22.msky130_fd_pr__pfet_g5v0d10v5#sbody = 1.980000e+00
m.xvco.xm23.msky130_fd_pr__nfet_g5v0d10v5#body = 2.964519e-11
m.xvco.xm23.msky130_fd_pr__nfet_g5v0d10v5#dbody = 6.420239e-11
m.xvco.xm23.msky130_fd_pr__nfet_g5v0d10v5#sbody = 1.482260e-11
m.xvco.xm24.msky130_fd_pr__pfet_g5v0d10v5#body = 1.980000e+00
m.xvco.xm24.msky130_fd_pr__pfet_g5v0d10v5#dbody = 1.980000e+00
m.xvco.xm24.msky130_fd_pr__pfet_g5v0d10v5#sbody = 1.980000e+00
out = 9.000000e-01
q.xvco.xq2.qsky130_fd_pr__pnp_05v5_w0p68l0p68#collcx = 1.106869e-04
q.xvco.xq3.qsky130_fd_pr__pnp_05v5_w0p68l0p68#collcx = 1.106869e-04
q.xvco.xq4.qsky130_fd_pr__pnp_05v5_w0p68l0p68#collcx = 1.106869e-04
q.xvco.xq5.qsky130_fd_pr__pnp_05v5_w0p68l0p68#collcx = 1.106869e-04
q.xvco.xq6.qsky130_fd_pr__pnp_05v5_w0p68l0p68#collcx = 1.106869e-04
q.xvco.xq7.qsky130_fd_pr__pnp_05v5_w0p68l0p68#collcx = 1.106869e-04
q.xvco.xq8.qsky130_fd_pr__pnp_05v5_w0p68l0p68#collcx = 1.106869e-04
q.xvco.xq9.qsky130_fd_pr__pnp_05v5_w0p68l0p68#collcx = 1.106869e-04
q.xvco.xq10.qsky130_fd_pr__pnp_05v5_w0p68l0p68#collcx = 7.942228e-04
vdd = 1.980000e+00
vdd#branch = -1.51128e-04
vtuner#branch = 8.226113e-05
xvco.net1 = 1.148462e+00
xvco.net2 = 6.314190e-01
xvco.net3 = 6.786914e-01
xvco.net4 = 6.291936e-01
xvco.net5 = 1.486088e+00
xvco.net6 = 8.346168e-01
xvco.net7 = 1.970170e+00
xvco.vbe = 6.918278e-01
xvco.xr1.xsky130_fd_pr__res_xhigh_po_1p41.ra = 1.716420e-03
xvco.xr3.xsky130_fd_pr__res_xhigh_po_1p41.ra = 1.751540e-03
xvco.xr4.xsky130_fd_pr__res_xhigh_po_1p41.ra = 6.318211e-01
