Warning: m=xx on .subckt line will override multiplier m hierarchy!

Note: Starting dynamic gmin stepping
Trying gmin =   1.0000E-03 Note: One successful gmin step
Trying gmin =   1.0000E-04 Note: One successful gmin step
Trying gmin =   1.0000E-05 Note: One successful gmin step
Trying gmin =   1.0000E-06 Note: One successful gmin step
Trying gmin =   1.0000E-07 Note: One successful gmin step
Trying gmin =   1.0000E-08 Note: One successful gmin step
Trying gmin =   1.0000E-09 Note: One successful gmin step
Trying gmin =   1.0000E-10 Note: One successful gmin step
Trying gmin =   3.1623E-11 Note: One successful gmin step
Trying gmin =   5.6234E-12 Note: One successful gmin step
Trying gmin =   1.0000E-12 Note: One successful gmin step
Note: Dynamic gmin stepping completed
 Reference value :  0.00000e+00Note: No ".plot", ".print", or ".fourier" lines; no simulations run

Note: Compatibility modes selected: hs a


Circuit: ** test bench for bgr

option SCALE: Scale is set to 1e-06 for instance and model parameters
Doing analysis at TEMP = 80.000000 and TNOM = 80.000000


No. of Data Rows : 1
iref = 5.243377e+01
iref = 5.243377e+01
m.xvco.xm2.msky130_fd_pr__pfet_g5v0d10v5#body = 1.800000e+00
m.xvco.xm2.msky130_fd_pr__pfet_g5v0d10v5#dbody = 1.800000e+00
m.xvco.xm2.msky130_fd_pr__pfet_g5v0d10v5#sbody = 1.800000e+00
m.xvco.xm13.msky130_fd_pr__pfet_g5v0d10v5#body = 1.800000e+00
m.xvco.xm13.msky130_fd_pr__pfet_g5v0d10v5#dbody = 1.800000e+00
m.xvco.xm13.msky130_fd_pr__pfet_g5v0d10v5#sbody = 1.800000e+00
m.xvco.xm14.msky130_fd_pr__pfet_g5v0d10v5#body = 1.800000e+00
m.xvco.xm14.msky130_fd_pr__pfet_g5v0d10v5#dbody = 1.800000e+00
m.xvco.xm14.msky130_fd_pr__pfet_g5v0d10v5#sbody = 1.800000e+00
m.xvco.xm15.msky130_fd_pr__pfet_g5v0d10v5#body = 1.800000e+00
m.xvco.xm15.msky130_fd_pr__pfet_g5v0d10v5#dbody = 1.800000e+00
m.xvco.xm15.msky130_fd_pr__pfet_g5v0d10v5#sbody = 1.800000e+00
m.xvco.xm16.msky130_fd_pr__pfet_g5v0d10v5#body = 1.800000e+00
m.xvco.xm16.msky130_fd_pr__pfet_g5v0d10v5#dbody = 1.800000e+00
m.xvco.xm16.msky130_fd_pr__pfet_g5v0d10v5#sbody = 1.800000e+00
m.xvco.xm17.msky130_fd_pr__pfet_g5v0d10v5#body = 1.800000e+00
m.xvco.xm17.msky130_fd_pr__pfet_g5v0d10v5#dbody = 1.800000e+00
m.xvco.xm17.msky130_fd_pr__pfet_g5v0d10v5#sbody = 1.800000e+00
m.xvco.xm18.msky130_fd_pr__pfet_g5v0d10v5#body = 1.800000e+00
m.xvco.xm18.msky130_fd_pr__pfet_g5v0d10v5#dbody = 1.800000e+00
m.xvco.xm18.msky130_fd_pr__pfet_g5v0d10v5#sbody = 1.800000e+00
m.xvco.xm19.msky130_fd_pr__nfet_g5v0d10v5#body = 1.347824e-11
m.xvco.xm19.msky130_fd_pr__nfet_g5v0d10v5#dbody = 3.369545e-11
m.xvco.xm19.msky130_fd_pr__nfet_g5v0d10v5#sbody = 6.739258e-12
m.xvco.xm20.msky130_fd_pr__nfet_g5v0d10v5#body = 1.030602e-11
m.xvco.xm20.msky130_fd_pr__nfet_g5v0d10v5#dbody = 2.576503e-11
m.xvco.xm20.msky130_fd_pr__nfet_g5v0d10v5#sbody = 5.153024e-12
m.xvco.xm21.msky130_fd_pr__nfet_g5v0d10v5#body = 7.874351e-12
m.xvco.xm21.msky130_fd_pr__nfet_g5v0d10v5#dbody = 1.968586e-11
m.xvco.xm21.msky130_fd_pr__nfet_g5v0d10v5#sbody = 3.937188e-12
m.xvco.xm22.msky130_fd_pr__pfet_g5v0d10v5#body = 1.800000e+00
m.xvco.xm22.msky130_fd_pr__pfet_g5v0d10v5#dbody = 1.800000e+00
m.xvco.xm22.msky130_fd_pr__pfet_g5v0d10v5#sbody = 1.800000e+00
m.xvco.xm23.msky130_fd_pr__nfet_g5v0d10v5#body = 2.385624e-11
m.xvco.xm23.msky130_fd_pr__nfet_g5v0d10v5#dbody = 5.790115e-11
m.xvco.xm23.msky130_fd_pr__nfet_g5v0d10v5#sbody = 1.192813e-11
m.xvco.xm24.msky130_fd_pr__pfet_g5v0d10v5#body = 1.800000e+00
m.xvco.xm24.msky130_fd_pr__pfet_g5v0d10v5#dbody = 1.800000e+00
m.xvco.xm24.msky130_fd_pr__pfet_g5v0d10v5#sbody = 1.800000e+00
out = 9.000000e-01
q.xvco.xq2.qsky130_fd_pr__pnp_05v5_w0p68l0p68#collcx = 1.472560e-05
q.xvco.xq3.qsky130_fd_pr__pnp_05v5_w0p68l0p68#collcx = 1.472560e-05
q.xvco.xq4.qsky130_fd_pr__pnp_05v5_w0p68l0p68#collcx = 1.472560e-05
q.xvco.xq5.qsky130_fd_pr__pnp_05v5_w0p68l0p68#collcx = 1.472560e-05
q.xvco.xq6.qsky130_fd_pr__pnp_05v5_w0p68l0p68#collcx = 1.472560e-05
q.xvco.xq7.qsky130_fd_pr__pnp_05v5_w0p68l0p68#collcx = 1.472560e-05
q.xvco.xq8.qsky130_fd_pr__pnp_05v5_w0p68l0p68#collcx = 1.472560e-05
q.xvco.xq9.qsky130_fd_pr__pnp_05v5_w0p68l0p68#collcx = 1.472560e-05
q.xvco.xq10.qsky130_fd_pr__pnp_05v5_w0p68l0p68#collcx = 2.754342e-05
vdd = 1.800000e+00
vdd#branch = -9.96634e-05
vtuner#branch = 5.243377e-05
xvco.net1 = 1.030856e+00
xvco.net2 = 5.284010e-01
xvco.net3 = 5.345111e-01
xvco.net4 = 5.825477e-01
xvco.net5 = 1.289376e+00
xvco.net6 = 7.770810e-01
xvco.net7 = 1.791521e+00
xvco.vbe = 5.481512e-01
xvco.xr1.xsky130_fd_pr__res_xhigh_po_1p41.ra = 1.371803e-03
xvco.xr3.xsky130_fd_pr__res_xhigh_po_1p41.ra = 1.408286e-03
xvco.xr4.xsky130_fd_pr__res_xhigh_po_1p41.ra = 5.284544e-01
