Warning: m=xx on .subckt line will override multiplier m hierarchy!

Note: Starting dynamic gmin stepping
Trying gmin =   1.0000E-03 Note: One successful gmin step
Trying gmin =   1.0000E-04 Note: One successful gmin step
Trying gmin =   1.0000E-05 Note: One successful gmin step
Trying gmin =   1.0000E-06 Note: One successful gmin step
Trying gmin =   1.0000E-07 Note: One successful gmin step
Trying gmin =   1.0000E-08 Note: One successful gmin step
Trying gmin =   1.0000E-09 Note: One successful gmin step
Trying gmin =   1.0000E-10 Warning: Further gmin increment
Trying gmin =   5.6234E-10 Note: One successful gmin step
Trying gmin =   2.3714E-10 Warning: Further gmin increment
Trying gmin =   4.5316E-10 Warning: Further gmin increment
Trying gmin =   5.3280E-10 Note: One successful gmin step
Trying gmin =   4.9137E-10 Note: One successful gmin step
Trying gmin =   4.3518E-10 Warning: Further gmin increment
Trying gmin =   4.7668E-10 Warning: Further gmin increment
Trying gmin =   4.8765E-10 Note: One successful gmin step
Trying gmin =   4.8213E-10 Warning: Further gmin increment
Trying gmin =   4.8627E-10 Note: One successful gmin step
Trying gmin =   4.8558E-10 Note: One successful gmin step
Trying gmin =   4.8454E-10 Note: One successful gmin step
Trying gmin =   4.8299E-10 Note: One successful gmin step
Trying gmin =   4.8068E-10 Note: One successful gmin step
Trying gmin =   4.7723E-10 Note: One successful gmin step
Trying gmin =   4.7210E-10 Note: One successful gmin step
Trying gmin =   4.6451E-10 Note: One successful gmin step
Trying gmin =   4.5335E-10 Note: One successful gmin step
Trying gmin =   4.3712E-10 Note: One successful gmin step
Trying gmin =   4.1385E-10 Note: One successful gmin step
Trying gmin =   3.8124E-10 Note: One successful gmin step
Trying gmin =   3.3709E-10 Note: One successful gmin step
Trying gmin =   2.8026E-10 Note: One successful gmin step
Trying gmin =   2.1247E-10 Note: One successful gmin step
Trying gmin =   1.4025E-10 Note: One successful gmin step
Trying gmin =   7.5211E-11 Note: One successful gmin step
Trying gmin =   2.9537E-11 Note: One successful gmin step
Trying gmin =   7.2693E-12 Note: One successful gmin step
Trying gmin =   1.0000E-12 Note: One successful gmin step
Note: Dynamic gmin stepping completed
 Reference value :  0.00000e+00Note: No ".plot", ".print", or ".fourier" lines; no simulations run

Note: Compatibility modes selected: hs a


Circuit: ** test bench for bgr

option SCALE: Scale is set to 1e-06 for instance and model parameters
Doing analysis at TEMP = 80.000000 and TNOM = 80.000000


No. of Data Rows : 1
iref = 8.171957e+01
iref = 8.171957e+01
m.xvco.xm2.msky130_fd_pr__pfet_g5v0d10v5#body = 1.980000e+00
m.xvco.xm2.msky130_fd_pr__pfet_g5v0d10v5#dbody = 1.980000e+00
m.xvco.xm2.msky130_fd_pr__pfet_g5v0d10v5#sbody = 1.980000e+00
m.xvco.xm13.msky130_fd_pr__pfet_g5v0d10v5#body = 1.980000e+00
m.xvco.xm13.msky130_fd_pr__pfet_g5v0d10v5#dbody = 1.980000e+00
m.xvco.xm13.msky130_fd_pr__pfet_g5v0d10v5#sbody = 1.980000e+00
m.xvco.xm14.msky130_fd_pr__pfet_g5v0d10v5#body = 1.980000e+00
m.xvco.xm14.msky130_fd_pr__pfet_g5v0d10v5#dbody = 1.980000e+00
m.xvco.xm14.msky130_fd_pr__pfet_g5v0d10v5#sbody = 1.980000e+00
m.xvco.xm15.msky130_fd_pr__pfet_g5v0d10v5#body = 1.980000e+00
m.xvco.xm15.msky130_fd_pr__pfet_g5v0d10v5#dbody = 1.980000e+00
m.xvco.xm15.msky130_fd_pr__pfet_g5v0d10v5#sbody = 1.980000e+00
m.xvco.xm16.msky130_fd_pr__pfet_g5v0d10v5#body = 1.980000e+00
m.xvco.xm16.msky130_fd_pr__pfet_g5v0d10v5#dbody = 1.980000e+00
m.xvco.xm16.msky130_fd_pr__pfet_g5v0d10v5#sbody = 1.980000e+00
m.xvco.xm17.msky130_fd_pr__pfet_g5v0d10v5#body = 1.980000e+00
m.xvco.xm17.msky130_fd_pr__pfet_g5v0d10v5#dbody = 1.980000e+00
m.xvco.xm17.msky130_fd_pr__pfet_g5v0d10v5#sbody = 1.980000e+00
m.xvco.xm18.msky130_fd_pr__pfet_g5v0d10v5#body = 1.980000e+00
m.xvco.xm18.msky130_fd_pr__pfet_g5v0d10v5#dbody = 1.980000e+00
m.xvco.xm18.msky130_fd_pr__pfet_g5v0d10v5#sbody = 1.980000e+00
m.xvco.xm19.msky130_fd_pr__nfet_g5v0d10v5#body = 1.539878e-11
m.xvco.xm19.msky130_fd_pr__nfet_g5v0d10v5#dbody = 3.849673e-11
m.xvco.xm19.msky130_fd_pr__nfet_g5v0d10v5#sbody = 7.699575e-12
m.xvco.xm20.msky130_fd_pr__nfet_g5v0d10v5#body = 1.074556e-11
m.xvco.xm20.msky130_fd_pr__nfet_g5v0d10v5#dbody = 2.686387e-11
m.xvco.xm20.msky130_fd_pr__nfet_g5v0d10v5#sbody = 5.372799e-12
m.xvco.xm21.msky130_fd_pr__nfet_g5v0d10v5#body = 8.168741e-12
m.xvco.xm21.msky130_fd_pr__nfet_g5v0d10v5#dbody = 2.042183e-11
m.xvco.xm21.msky130_fd_pr__nfet_g5v0d10v5#sbody = 4.084388e-12
m.xvco.xm22.msky130_fd_pr__pfet_g5v0d10v5#body = 1.980000e+00
m.xvco.xm22.msky130_fd_pr__pfet_g5v0d10v5#dbody = 1.980000e+00
m.xvco.xm22.msky130_fd_pr__pfet_g5v0d10v5#sbody = 1.980000e+00
m.xvco.xm23.msky130_fd_pr__nfet_g5v0d10v5#body = 2.894420e-11
m.xvco.xm23.msky130_fd_pr__nfet_g5v0d10v5#dbody = 6.487919e-11
m.xvco.xm23.msky130_fd_pr__nfet_g5v0d10v5#sbody = 1.447211e-11
m.xvco.xm24.msky130_fd_pr__pfet_g5v0d10v5#body = 1.980000e+00
m.xvco.xm24.msky130_fd_pr__pfet_g5v0d10v5#dbody = 1.980000e+00
m.xvco.xm24.msky130_fd_pr__pfet_g5v0d10v5#sbody = 1.980000e+00
out = 9.000000e-01
q.xvco.xq2.qsky130_fd_pr__pnp_05v5_w0p68l0p68#collcx = 1.227520e-04
q.xvco.xq3.qsky130_fd_pr__pnp_05v5_w0p68l0p68#collcx = 1.227520e-04
q.xvco.xq4.qsky130_fd_pr__pnp_05v5_w0p68l0p68#collcx = 1.227520e-04
q.xvco.xq5.qsky130_fd_pr__pnp_05v5_w0p68l0p68#collcx = 1.227520e-04
q.xvco.xq6.qsky130_fd_pr__pnp_05v5_w0p68l0p68#collcx = 1.227520e-04
q.xvco.xq7.qsky130_fd_pr__pnp_05v5_w0p68l0p68#collcx = 1.227520e-04
q.xvco.xq8.qsky130_fd_pr__pnp_05v5_w0p68l0p68#collcx = 1.227520e-04
q.xvco.xq9.qsky130_fd_pr__pnp_05v5_w0p68l0p68#collcx = 1.227520e-04
q.xvco.xq10.qsky130_fd_pr__pnp_05v5_w0p68l0p68#collcx = 8.851056e-04
vdd = 1.980000e+00
vdd#branch = -1.47761e-04
vtuner#branch = 8.171957e-05
xvco.net1 = 1.184497e+00
xvco.net2 = 5.954843e-01
xvco.net3 = 6.463090e-01
xvco.net4 = 6.060988e-01
xvco.net5 = 1.425279e+00
xvco.net6 = 8.122440e-01
xvco.net7 = 1.968884e+00
xvco.vbe = 6.599456e-01
xvco.xr1.xsky130_fd_pr__res_xhigh_po_1p41.ra = 1.673491e-03
xvco.xr3.xsky130_fd_pr__res_xhigh_po_1p41.ra = 1.710705e-03
xvco.xr4.xsky130_fd_pr__res_xhigh_po_1p41.ra = 5.959280e-01
