Warning: m=xx on .subckt line will override multiplier m hierarchy!

Note: Starting dynamic gmin stepping
Trying gmin =   1.0000E-03 Note: One successful gmin step
Trying gmin =   1.0000E-04 Note: One successful gmin step
Trying gmin =   1.0000E-05 Note: One successful gmin step
Trying gmin =   1.0000E-06 Note: One successful gmin step
Trying gmin =   1.0000E-07 Note: One successful gmin step
Trying gmin =   1.0000E-08 Note: One successful gmin step
Trying gmin =   1.0000E-09 Note: One successful gmin step
Trying gmin =   1.0000E-10 Note: One successful gmin step
Trying gmin =   1.0000E-11 Warning: Further gmin increment
Trying gmin =   5.6234E-11 Note: One successful gmin step
Trying gmin =   2.3714E-11 Note: One successful gmin step
Trying gmin =   6.4938E-12 Warning: Further gmin increment
Trying gmin =   1.7154E-11 Note: One successful gmin step
Trying gmin =   1.0554E-11 Note: One successful gmin step
Trying gmin =   5.0937E-12 Warning: Further gmin increment
Trying gmin =   8.7970E-12 Warning: Further gmin increment
Trying gmin =   1.0085E-11 Note: One successful gmin step
Trying gmin =   9.8577E-12 Note: One successful gmin step
Trying gmin =   9.5267E-12 Note: One successful gmin step
Trying gmin =   9.0510E-12 Note: One successful gmin step
Trying gmin =   8.3816E-12 Note: One successful gmin step
Trying gmin =   7.4691E-12 Note: One successful gmin step
Trying gmin =   6.2832E-12 Note: One successful gmin step
Trying gmin =   4.8479E-12 Note: One successful gmin step
Trying gmin =   3.2856E-12 Note: One successful gmin step
Trying gmin =   1.8332E-12 Note: One successful gmin step
Trying gmin =   1.0000E-12 Note: One successful gmin step
Note: Dynamic gmin stepping completed
 Reference value :  0.00000e+00Note: No ".plot", ".print", or ".fourier" lines; no simulations run

Note: Compatibility modes selected: hs a


Circuit: ** test bench for bgr

option SCALE: Scale is set to 1e-06 for instance and model parameters
Doing analysis at TEMP = -30.000000 and TNOM = -30.000000


No. of Data Rows : 1
iref = 8.099645e+01
iref = 8.099645e+01
m.xvco.xm2.msky130_fd_pr__pfet_g5v0d10v5#body = 1.980000e+00
m.xvco.xm2.msky130_fd_pr__pfet_g5v0d10v5#dbody = 1.980000e+00
m.xvco.xm2.msky130_fd_pr__pfet_g5v0d10v5#sbody = 1.980000e+00
m.xvco.xm13.msky130_fd_pr__pfet_g5v0d10v5#body = 1.980000e+00
m.xvco.xm13.msky130_fd_pr__pfet_g5v0d10v5#dbody = 1.980000e+00
m.xvco.xm13.msky130_fd_pr__pfet_g5v0d10v5#sbody = 1.980000e+00
m.xvco.xm14.msky130_fd_pr__pfet_g5v0d10v5#body = 1.980000e+00
m.xvco.xm14.msky130_fd_pr__pfet_g5v0d10v5#dbody = 1.980000e+00
m.xvco.xm14.msky130_fd_pr__pfet_g5v0d10v5#sbody = 1.980000e+00
m.xvco.xm15.msky130_fd_pr__pfet_g5v0d10v5#body = 1.980000e+00
m.xvco.xm15.msky130_fd_pr__pfet_g5v0d10v5#dbody = 1.980000e+00
m.xvco.xm15.msky130_fd_pr__pfet_g5v0d10v5#sbody = 1.980000e+00
m.xvco.xm16.msky130_fd_pr__pfet_g5v0d10v5#body = 1.980000e+00
m.xvco.xm16.msky130_fd_pr__pfet_g5v0d10v5#dbody = 1.980000e+00
m.xvco.xm16.msky130_fd_pr__pfet_g5v0d10v5#sbody = 1.980000e+00
m.xvco.xm17.msky130_fd_pr__pfet_g5v0d10v5#body = 1.980000e+00
m.xvco.xm17.msky130_fd_pr__pfet_g5v0d10v5#dbody = 1.980000e+00
m.xvco.xm17.msky130_fd_pr__pfet_g5v0d10v5#sbody = 1.980000e+00
m.xvco.xm18.msky130_fd_pr__pfet_g5v0d10v5#body = 1.980000e+00
m.xvco.xm18.msky130_fd_pr__pfet_g5v0d10v5#dbody = 1.980000e+00
m.xvco.xm18.msky130_fd_pr__pfet_g5v0d10v5#sbody = 1.980000e+00
m.xvco.xm19.msky130_fd_pr__nfet_g5v0d10v5#body = 1.272611e-11
m.xvco.xm19.msky130_fd_pr__nfet_g5v0d10v5#dbody = 3.181515e-11
m.xvco.xm19.msky130_fd_pr__nfet_g5v0d10v5#sbody = 6.363174e-12
m.xvco.xm20.msky130_fd_pr__nfet_g5v0d10v5#body = 1.640866e-11
m.xvco.xm20.msky130_fd_pr__nfet_g5v0d10v5#dbody = 4.102148e-11
m.xvco.xm20.msky130_fd_pr__nfet_g5v0d10v5#sbody = 8.204342e-12
m.xvco.xm21.msky130_fd_pr__nfet_g5v0d10v5#body = 1.293909e-11
m.xvco.xm21.msky130_fd_pr__nfet_g5v0d10v5#dbody = 3.234772e-11
m.xvco.xm21.msky130_fd_pr__nfet_g5v0d10v5#sbody = 6.469555e-12
m.xvco.xm22.msky130_fd_pr__pfet_g5v0d10v5#body = 1.980000e+00
m.xvco.xm22.msky130_fd_pr__pfet_g5v0d10v5#dbody = 1.980000e+00
m.xvco.xm22.msky130_fd_pr__pfet_g5v0d10v5#sbody = 1.980000e+00
m.xvco.xm23.msky130_fd_pr__nfet_g5v0d10v5#body = 2.721516e-11
m.xvco.xm23.msky130_fd_pr__nfet_g5v0d10v5#dbody = 6.308524e-11
m.xvco.xm23.msky130_fd_pr__nfet_g5v0d10v5#sbody = 1.360758e-11
m.xvco.xm24.msky130_fd_pr__pfet_g5v0d10v5#body = 1.980000e+00
m.xvco.xm24.msky130_fd_pr__pfet_g5v0d10v5#dbody = 1.980000e+00
m.xvco.xm24.msky130_fd_pr__pfet_g5v0d10v5#sbody = 1.980000e+00
out = 9.000000e-01
q.xvco.xq2.qsky130_fd_pr__pnp_05v5_w0p68l0p68#collcx = 5.169644e-05
q.xvco.xq3.qsky130_fd_pr__pnp_05v5_w0p68l0p68#collcx = 5.169644e-05
q.xvco.xq4.qsky130_fd_pr__pnp_05v5_w0p68l0p68#collcx = 5.169644e-05
q.xvco.xq5.qsky130_fd_pr__pnp_05v5_w0p68l0p68#collcx = 5.169644e-05
q.xvco.xq6.qsky130_fd_pr__pnp_05v5_w0p68l0p68#collcx = 5.169644e-05
q.xvco.xq7.qsky130_fd_pr__pnp_05v5_w0p68l0p68#collcx = 5.169644e-05
q.xvco.xq8.qsky130_fd_pr__pnp_05v5_w0p68l0p68#collcx = 5.169644e-05
q.xvco.xq9.qsky130_fd_pr__pnp_05v5_w0p68l0p68#collcx = 5.169644e-05
q.xvco.xq10.qsky130_fd_pr__pnp_05v5_w0p68l0p68#collcx = 3.335647e-04
vdd = 1.980000e+00
vdd#branch = -1.69881e-04
vtuner#branch = 8.099645e-05
xvco.net1 = 1.018088e+00
xvco.net2 = 7.889874e-01
xvco.net3 = 8.162493e-01
xvco.net4 = 1.035127e+00
xvco.net5 = 1.732144e+00
xvco.net6 = 1.312686e+00
xvco.net7 = 1.979106e+00
xvco.vbe = 8.297597e-01
xvco.xr1.xsky130_fd_pr__res_xhigh_po_1p41.ra = 1.824685e-03
xvco.xr3.xsky130_fd_pr__res_xhigh_po_1p41.ra = 1.856984e-03
xvco.xr4.xsky130_fd_pr__res_xhigh_po_1p41.ra = 7.891902e-01
