Warning: m=xx on .subckt line will override multiplier m hierarchy!

Note: Starting dynamic gmin stepping
Trying gmin =   1.0000E-03 Note: One successful gmin step
Trying gmin =   1.0000E-04 Note: One successful gmin step
Trying gmin =   1.0000E-05 Note: One successful gmin step
Trying gmin =   1.0000E-06 Note: One successful gmin step
Trying gmin =   1.0000E-07 Note: One successful gmin step
Trying gmin =   1.0000E-08 Note: One successful gmin step
Trying gmin =   1.0000E-09 Note: One successful gmin step
Trying gmin =   1.0000E-10 Warning: Further gmin increment
Trying gmin =   5.6234E-10 Note: One successful gmin step
Trying gmin =   2.3714E-10 Note: One successful gmin step
Trying gmin =   6.4938E-11 Warning: Further gmin increment
Trying gmin =   1.7154E-10 Warning: Further gmin increment
Trying gmin =   2.1870E-10 Note: One successful gmin step
Trying gmin =   1.9369E-10 Note: One successful gmin step
Trying gmin =   1.6144E-10 Warning: Further gmin increment
Trying gmin =   1.8507E-10 Note: One successful gmin step
Trying gmin =   1.7285E-10 Warning: Further gmin increment
Trying gmin =   1.8194E-10 Note: One successful gmin step
Trying gmin =   1.7734E-10 Note: One successful gmin step
Trying gmin =   1.7065E-10 Note: One successful gmin step
Trying gmin =   1.6740E-10 Note: One successful gmin step
Trying gmin =   1.6265E-10 Note: One successful gmin step
Trying gmin =   1.5577E-10 Note: One successful gmin step
Trying gmin =   1.4599E-10 Note: One successful gmin step
Trying gmin =   1.3246E-10 Note: One successful gmin step
Trying gmin =   1.1448E-10 Note: One successful gmin step
Trying gmin =   9.1983E-11 Note: One successful gmin step
Trying gmin =   6.6247E-11 Note: One successful gmin step
Trying gmin =   4.0490E-11 Note: One successful gmin step
Trying gmin =   1.9348E-11 Note: One successful gmin step
Trying gmin =   6.3906E-12 Note: One successful gmin step
Trying gmin =   1.2131E-12 Note: One successful gmin step
Trying gmin =   1.0000E-12 Note: One successful gmin step
Note: Dynamic gmin stepping completed
 Reference value :  0.00000e+00Note: No ".plot", ".print", or ".fourier" lines; no simulations run

Note: Compatibility modes selected: hs a


Circuit: ** test bench for bgr

option SCALE: Scale is set to 1e-06 for instance and model parameters
Doing analysis at TEMP = 100.000000 and TNOM = 100.000000


No. of Data Rows : 1
iref = 7.835788e+01
iref = 7.835788e+01
m.xvco.xm2.msky130_fd_pr__pfet_g5v0d10v5#body = 1.980000e+00
m.xvco.xm2.msky130_fd_pr__pfet_g5v0d10v5#dbody = 1.980000e+00
m.xvco.xm2.msky130_fd_pr__pfet_g5v0d10v5#sbody = 1.980000e+00
m.xvco.xm13.msky130_fd_pr__pfet_g5v0d10v5#body = 1.980000e+00
m.xvco.xm13.msky130_fd_pr__pfet_g5v0d10v5#dbody = 1.980000e+00
m.xvco.xm13.msky130_fd_pr__pfet_g5v0d10v5#sbody = 1.980000e+00
m.xvco.xm14.msky130_fd_pr__pfet_g5v0d10v5#body = 1.980000e+00
m.xvco.xm14.msky130_fd_pr__pfet_g5v0d10v5#dbody = 1.980000e+00
m.xvco.xm14.msky130_fd_pr__pfet_g5v0d10v5#sbody = 1.980000e+00
m.xvco.xm15.msky130_fd_pr__pfet_g5v0d10v5#body = 1.980000e+00
m.xvco.xm15.msky130_fd_pr__pfet_g5v0d10v5#dbody = 1.980000e+00
m.xvco.xm15.msky130_fd_pr__pfet_g5v0d10v5#sbody = 1.980000e+00
m.xvco.xm16.msky130_fd_pr__pfet_g5v0d10v5#body = 1.980000e+00
m.xvco.xm16.msky130_fd_pr__pfet_g5v0d10v5#dbody = 1.980000e+00
m.xvco.xm16.msky130_fd_pr__pfet_g5v0d10v5#sbody = 1.980000e+00
m.xvco.xm17.msky130_fd_pr__pfet_g5v0d10v5#body = 1.980000e+00
m.xvco.xm17.msky130_fd_pr__pfet_g5v0d10v5#dbody = 1.980000e+00
m.xvco.xm17.msky130_fd_pr__pfet_g5v0d10v5#sbody = 1.980000e+00
m.xvco.xm18.msky130_fd_pr__pfet_g5v0d10v5#body = 1.980000e+00
m.xvco.xm18.msky130_fd_pr__pfet_g5v0d10v5#dbody = 1.980000e+00
m.xvco.xm18.msky130_fd_pr__pfet_g5v0d10v5#sbody = 1.980000e+00
m.xvco.xm19.msky130_fd_pr__nfet_g5v0d10v5#body = 2.041067e-11
m.xvco.xm19.msky130_fd_pr__nfet_g5v0d10v5#dbody = 5.102582e-11
m.xvco.xm19.msky130_fd_pr__nfet_g5v0d10v5#sbody = 1.020619e-11
m.xvco.xm20.msky130_fd_pr__nfet_g5v0d10v5#body = 1.946208e-11
m.xvco.xm20.msky130_fd_pr__nfet_g5v0d10v5#dbody = 4.865511e-11
m.xvco.xm20.msky130_fd_pr__nfet_g5v0d10v5#sbody = 9.731141e-12
m.xvco.xm21.msky130_fd_pr__nfet_g5v0d10v5#body = 1.598744e-11
m.xvco.xm21.msky130_fd_pr__nfet_g5v0d10v5#dbody = 3.996850e-11
m.xvco.xm21.msky130_fd_pr__nfet_g5v0d10v5#sbody = 7.993806e-12
m.xvco.xm22.msky130_fd_pr__pfet_g5v0d10v5#body = 1.980000e+00
m.xvco.xm22.msky130_fd_pr__pfet_g5v0d10v5#dbody = 1.980000e+00
m.xvco.xm22.msky130_fd_pr__pfet_g5v0d10v5#sbody = 1.980000e+00
m.xvco.xm23.msky130_fd_pr__nfet_g5v0d10v5#body = 3.166295e-11
m.xvco.xm23.msky130_fd_pr__nfet_g5v0d10v5#dbody = 7.459399e-11
m.xvco.xm23.msky130_fd_pr__nfet_g5v0d10v5#sbody = 1.583150e-11
m.xvco.xm24.msky130_fd_pr__pfet_g5v0d10v5#body = 1.980000e+00
m.xvco.xm24.msky130_fd_pr__pfet_g5v0d10v5#dbody = 1.980000e+00
m.xvco.xm24.msky130_fd_pr__pfet_g5v0d10v5#sbody = 1.980000e+00
out = 9.000000e-01
q.xvco.xq2.qsky130_fd_pr__pnp_05v5_w0p68l0p68#collcx = 1.186335e-04
q.xvco.xq3.qsky130_fd_pr__pnp_05v5_w0p68l0p68#collcx = 1.186335e-04
q.xvco.xq4.qsky130_fd_pr__pnp_05v5_w0p68l0p68#collcx = 1.186335e-04
q.xvco.xq5.qsky130_fd_pr__pnp_05v5_w0p68l0p68#collcx = 1.186335e-04
q.xvco.xq6.qsky130_fd_pr__pnp_05v5_w0p68l0p68#collcx = 1.186335e-04
q.xvco.xq7.qsky130_fd_pr__pnp_05v5_w0p68l0p68#collcx = 1.186335e-04
q.xvco.xq8.qsky130_fd_pr__pnp_05v5_w0p68l0p68#collcx = 1.186335e-04
q.xvco.xq9.qsky130_fd_pr__pnp_05v5_w0p68l0p68#collcx = 1.186335e-04
q.xvco.xq10.qsky130_fd_pr__pnp_05v5_w0p68l0p68#collcx = 8.192206e-04
vdd = 1.980000e+00
vdd#branch = -1.40931e-04
vtuner#branch = 7.835788e-05
xvco.net1 = 1.255739e+00
xvco.net2 = 5.629924e-01
xvco.net3 = 6.113620e-01
xvco.net4 = 9.019081e-01
xvco.net5 = 1.343600e+00
xvco.net6 = 1.179880e+00
xvco.net7 = 1.973417e+00
xvco.vbe = 6.295240e-01
xvco.xr1.xsky130_fd_pr__res_xhigh_po_1p41.ra = 1.617751e-03
xvco.xr3.xsky130_fd_pr__res_xhigh_po_1p41.ra = 1.668251e-03
xvco.xr4.xsky130_fd_pr__res_xhigh_po_1p41.ra = 5.634251e-01
