Warning: m=xx on .subckt line will override multiplier m hierarchy!

Note: Starting dynamic gmin stepping
Trying gmin =   1.0000E-03 Note: One successful gmin step
Trying gmin =   1.0000E-04 Note: One successful gmin step
Trying gmin =   1.0000E-05 Note: One successful gmin step
Trying gmin =   1.0000E-06 Note: One successful gmin step
Trying gmin =   1.0000E-07 Note: One successful gmin step
Trying gmin =   1.0000E-08 Note: One successful gmin step
Trying gmin =   1.0000E-09 Note: One successful gmin step
Trying gmin =   1.0000E-10 Warning: Further gmin increment
Trying gmin =   5.6234E-10 Note: One successful gmin step
Trying gmin =   2.3714E-10 Warning: Further gmin increment
Trying gmin =   4.5316E-10 Note: One successful gmin step
Trying gmin =   3.2781E-10 Note: One successful gmin step
Trying gmin =   2.0169E-10 Warning: Further gmin increment
Trying gmin =   2.9033E-10 Note: One successful gmin step
Trying gmin =   2.4199E-10 Warning: Further gmin increment
Trying gmin =   2.7741E-10 Note: One successful gmin step
Trying gmin =   2.5909E-10 Warning: Further gmin increment
Trying gmin =   2.7271E-10 Note: One successful gmin step
Trying gmin =   2.6581E-10 Note: One successful gmin step
Trying gmin =   2.5579E-10 Warning: Further gmin increment
Trying gmin =   2.6327E-10 Note: One successful gmin step
Trying gmin =   2.5951E-10 Note: One successful gmin step
Trying gmin =   2.5764E-10 Note: One successful gmin step
Trying gmin =   2.5487E-10 Note: One successful gmin step
Trying gmin =   2.5078E-10 Note: One successful gmin step
Trying gmin =   2.4475E-10 Note: One successful gmin step
Trying gmin =   2.3599E-10 Note: One successful gmin step
Trying gmin =   2.2343E-10 Note: One successful gmin step
Trying gmin =   2.0582E-10 Note: One successful gmin step
Trying gmin =   1.8199E-10 Note: One successful gmin step
Trying gmin =   1.5131E-10 Note: One successful gmin step
Trying gmin =   1.1471E-10 Note: One successful gmin step
Trying gmin =   7.5715E-11 Note: One successful gmin step
Trying gmin =   4.0605E-11 Note: One successful gmin step
Trying gmin =   1.5946E-11 Note: One successful gmin step
Trying gmin =   3.9245E-12 Note: One successful gmin step
Trying gmin =   1.0000E-12 Note: One successful gmin step
Note: Dynamic gmin stepping completed
 Reference value :  0.00000e+00Note: No ".plot", ".print", or ".fourier" lines; no simulations run

Note: Compatibility modes selected: hs a


Circuit: ** test bench for bgr

option SCALE: Scale is set to 1e-06 for instance and model parameters
Doing analysis at TEMP = 110.000000 and TNOM = 110.000000


No. of Data Rows : 1
iref = 7.765114e+01
iref = 7.765114e+01
m.xvco.xm2.msky130_fd_pr__pfet_g5v0d10v5#body = 1.980000e+00
m.xvco.xm2.msky130_fd_pr__pfet_g5v0d10v5#dbody = 1.980000e+00
m.xvco.xm2.msky130_fd_pr__pfet_g5v0d10v5#sbody = 1.980000e+00
m.xvco.xm13.msky130_fd_pr__pfet_g5v0d10v5#body = 1.980000e+00
m.xvco.xm13.msky130_fd_pr__pfet_g5v0d10v5#dbody = 1.980000e+00
m.xvco.xm13.msky130_fd_pr__pfet_g5v0d10v5#sbody = 1.980000e+00
m.xvco.xm14.msky130_fd_pr__pfet_g5v0d10v5#body = 1.980000e+00
m.xvco.xm14.msky130_fd_pr__pfet_g5v0d10v5#dbody = 1.980000e+00
m.xvco.xm14.msky130_fd_pr__pfet_g5v0d10v5#sbody = 1.980000e+00
m.xvco.xm15.msky130_fd_pr__pfet_g5v0d10v5#body = 1.980000e+00
m.xvco.xm15.msky130_fd_pr__pfet_g5v0d10v5#dbody = 1.980000e+00
m.xvco.xm15.msky130_fd_pr__pfet_g5v0d10v5#sbody = 1.980000e+00
m.xvco.xm16.msky130_fd_pr__pfet_g5v0d10v5#body = 1.980000e+00
m.xvco.xm16.msky130_fd_pr__pfet_g5v0d10v5#dbody = 1.980000e+00
m.xvco.xm16.msky130_fd_pr__pfet_g5v0d10v5#sbody = 1.980000e+00
m.xvco.xm17.msky130_fd_pr__pfet_g5v0d10v5#body = 1.980000e+00
m.xvco.xm17.msky130_fd_pr__pfet_g5v0d10v5#dbody = 1.980000e+00
m.xvco.xm17.msky130_fd_pr__pfet_g5v0d10v5#sbody = 1.980000e+00
m.xvco.xm18.msky130_fd_pr__pfet_g5v0d10v5#body = 1.980000e+00
m.xvco.xm18.msky130_fd_pr__pfet_g5v0d10v5#dbody = 1.980000e+00
m.xvco.xm18.msky130_fd_pr__pfet_g5v0d10v5#sbody = 1.980000e+00
m.xvco.xm19.msky130_fd_pr__nfet_g5v0d10v5#body = 2.788162e-11
m.xvco.xm19.msky130_fd_pr__nfet_g5v0d10v5#dbody = 6.970210e-11
m.xvco.xm19.msky130_fd_pr__nfet_g5v0d10v5#sbody = 1.394274e-11
m.xvco.xm20.msky130_fd_pr__nfet_g5v0d10v5#body = 2.655824e-11
m.xvco.xm20.msky130_fd_pr__nfet_g5v0d10v5#dbody = 6.639536e-11
m.xvco.xm20.msky130_fd_pr__nfet_g5v0d10v5#sbody = 1.327935e-11
m.xvco.xm21.msky130_fd_pr__nfet_g5v0d10v5#body = 2.309251e-11
m.xvco.xm21.msky130_fd_pr__nfet_g5v0d10v5#dbody = 5.773107e-11
m.xvco.xm21.msky130_fd_pr__nfet_g5v0d10v5#sbody = 1.154646e-11
m.xvco.xm22.msky130_fd_pr__pfet_g5v0d10v5#body = 1.980000e+00
m.xvco.xm22.msky130_fd_pr__pfet_g5v0d10v5#dbody = 1.980000e+00
m.xvco.xm22.msky130_fd_pr__pfet_g5v0d10v5#sbody = 1.980000e+00
m.xvco.xm23.msky130_fd_pr__nfet_g5v0d10v5#body = 3.857381e-11
m.xvco.xm23.msky130_fd_pr__nfet_g5v0d10v5#dbody = 9.251803e-11
m.xvco.xm23.msky130_fd_pr__nfet_g5v0d10v5#sbody = 1.928697e-11
m.xvco.xm24.msky130_fd_pr__pfet_g5v0d10v5#body = 1.980000e+00
m.xvco.xm24.msky130_fd_pr__pfet_g5v0d10v5#dbody = 1.980000e+00
m.xvco.xm24.msky130_fd_pr__pfet_g5v0d10v5#sbody = 1.980000e+00
out = 9.000000e-01
q.xvco.xq2.qsky130_fd_pr__pnp_05v5_w0p68l0p68#collcx = 1.235297e-04
q.xvco.xq3.qsky130_fd_pr__pnp_05v5_w0p68l0p68#collcx = 1.235297e-04
q.xvco.xq4.qsky130_fd_pr__pnp_05v5_w0p68l0p68#collcx = 1.235297e-04
q.xvco.xq5.qsky130_fd_pr__pnp_05v5_w0p68l0p68#collcx = 1.235297e-04
q.xvco.xq6.qsky130_fd_pr__pnp_05v5_w0p68l0p68#collcx = 1.235297e-04
q.xvco.xq7.qsky130_fd_pr__pnp_05v5_w0p68l0p68#collcx = 1.235297e-04
q.xvco.xq8.qsky130_fd_pr__pnp_05v5_w0p68l0p68#collcx = 1.235297e-04
q.xvco.xq9.qsky130_fd_pr__pnp_05v5_w0p68l0p68#collcx = 1.235297e-04
q.xvco.xq10.qsky130_fd_pr__pnp_05v5_w0p68l0p68#collcx = 8.529124e-04
vdd = 1.980000e+00
vdd#branch = -1.38618e-04
vtuner#branch = 7.765114e-05
xvco.net1 = 1.274171e+00
xvco.net2 = 5.446986e-01
xvco.net3 = 5.943605e-01
xvco.net4 = 8.911094e-01
xvco.net5 = 1.312465e+00
xvco.net6 = 1.168367e+00
xvco.net7 = 1.972962e+00
xvco.vbe = 6.131199e-01
xvco.xr1.xsky130_fd_pr__res_xhigh_po_1p41.ra = 1.588951e-03
xvco.xr3.xsky130_fd_pr__res_xhigh_po_1p41.ra = 1.641562e-03
xvco.xr4.xsky130_fd_pr__res_xhigh_po_1p41.ra = 5.451480e-01
