Warning: m=xx on .subckt line will override multiplier m hierarchy!

 Reference value :  0.00000e+00Note: No ".plot", ".print", or ".fourier" lines; no simulations run

Note: Compatibility modes selected: hs a


Circuit: ** test bench for bgr

option SCALE: Scale is set to 1e-06 for instance and model parameters
Doing analysis at TEMP = 20.000000 and TNOM = 20.000000


No. of Data Rows : 1
iref = 7.539161e+01
iref = 7.539161e+01
m.xvco.xm2.msky130_fd_pr__pfet_g5v0d10v5#body = 1.620000e+00
m.xvco.xm2.msky130_fd_pr__pfet_g5v0d10v5#dbody = 1.620000e+00
m.xvco.xm2.msky130_fd_pr__pfet_g5v0d10v5#sbody = 1.620000e+00
m.xvco.xm13.msky130_fd_pr__pfet_g5v0d10v5#body = 1.620000e+00
m.xvco.xm13.msky130_fd_pr__pfet_g5v0d10v5#dbody = 1.620000e+00
m.xvco.xm13.msky130_fd_pr__pfet_g5v0d10v5#sbody = 1.620000e+00
m.xvco.xm14.msky130_fd_pr__pfet_g5v0d10v5#body = 1.620000e+00
m.xvco.xm14.msky130_fd_pr__pfet_g5v0d10v5#dbody = 1.620000e+00
m.xvco.xm14.msky130_fd_pr__pfet_g5v0d10v5#sbody = 1.620000e+00
m.xvco.xm15.msky130_fd_pr__pfet_g5v0d10v5#body = 1.620000e+00
m.xvco.xm15.msky130_fd_pr__pfet_g5v0d10v5#dbody = 1.620000e+00
m.xvco.xm15.msky130_fd_pr__pfet_g5v0d10v5#sbody = 1.620000e+00
m.xvco.xm16.msky130_fd_pr__pfet_g5v0d10v5#body = 1.620000e+00
m.xvco.xm16.msky130_fd_pr__pfet_g5v0d10v5#dbody = 1.620000e+00
m.xvco.xm16.msky130_fd_pr__pfet_g5v0d10v5#sbody = 1.620000e+00
m.xvco.xm17.msky130_fd_pr__pfet_g5v0d10v5#body = 1.620000e+00
m.xvco.xm17.msky130_fd_pr__pfet_g5v0d10v5#dbody = 1.620000e+00
m.xvco.xm17.msky130_fd_pr__pfet_g5v0d10v5#sbody = 1.620000e+00
m.xvco.xm18.msky130_fd_pr__pfet_g5v0d10v5#body = 1.620000e+00
m.xvco.xm18.msky130_fd_pr__pfet_g5v0d10v5#dbody = 1.620000e+00
m.xvco.xm18.msky130_fd_pr__pfet_g5v0d10v5#sbody = 1.620000e+00
m.xvco.xm19.msky130_fd_pr__nfet_g5v0d10v5#body = 9.311312e-12
m.xvco.xm19.msky130_fd_pr__nfet_g5v0d10v5#dbody = 2.327817e-11
m.xvco.xm19.msky130_fd_pr__nfet_g5v0d10v5#sbody = 4.655758e-12
m.xvco.xm20.msky130_fd_pr__nfet_g5v0d10v5#body = 1.622806e-11
m.xvco.xm20.msky130_fd_pr__nfet_g5v0d10v5#dbody = 4.057006e-11
m.xvco.xm20.msky130_fd_pr__nfet_g5v0d10v5#sbody = 8.114036e-12
m.xvco.xm21.msky130_fd_pr__nfet_g5v0d10v5#body = 1.212012e-11
m.xvco.xm21.msky130_fd_pr__nfet_g5v0d10v5#dbody = 3.030030e-11
m.xvco.xm21.msky130_fd_pr__nfet_g5v0d10v5#sbody = 6.060068e-12
m.xvco.xm22.msky130_fd_pr__pfet_g5v0d10v5#body = 1.620000e+00
m.xvco.xm22.msky130_fd_pr__pfet_g5v0d10v5#dbody = 1.620000e+00
m.xvco.xm22.msky130_fd_pr__pfet_g5v0d10v5#sbody = 1.620000e+00
m.xvco.xm23.msky130_fd_pr__nfet_g5v0d10v5#body = 2.025505e-11
m.xvco.xm23.msky130_fd_pr__nfet_g5v0d10v5#dbody = 5.062768e-11
m.xvco.xm23.msky130_fd_pr__nfet_g5v0d10v5#sbody = 1.012752e-11
m.xvco.xm24.msky130_fd_pr__pfet_g5v0d10v5#body = 1.620000e+00
m.xvco.xm24.msky130_fd_pr__pfet_g5v0d10v5#dbody = 1.620000e+00
m.xvco.xm24.msky130_fd_pr__pfet_g5v0d10v5#sbody = 1.620000e+00
out = 9.000000e-01
q.xvco.xq2.qsky130_fd_pr__pnp_05v5_w0p68l0p68#collcx = 5.767222e-05
q.xvco.xq3.qsky130_fd_pr__pnp_05v5_w0p68l0p68#collcx = 5.767222e-05
q.xvco.xq4.qsky130_fd_pr__pnp_05v5_w0p68l0p68#collcx = 5.767222e-05
q.xvco.xq5.qsky130_fd_pr__pnp_05v5_w0p68l0p68#collcx = 5.767222e-05
q.xvco.xq6.qsky130_fd_pr__pnp_05v5_w0p68l0p68#collcx = 5.767222e-05
q.xvco.xq7.qsky130_fd_pr__pnp_05v5_w0p68l0p68#collcx = 5.767222e-05
q.xvco.xq8.qsky130_fd_pr__pnp_05v5_w0p68l0p68#collcx = 5.767222e-05
q.xvco.xq9.qsky130_fd_pr__pnp_05v5_w0p68l0p68#collcx = 5.767222e-05
q.xvco.xq10.qsky130_fd_pr__pnp_05v5_w0p68l0p68#collcx = 3.333705e-04
vdd = 1.620000e+00
vdd#branch = -1.53896e-04
vtuner#branch = 7.539161e-05
xvco.net1 = 7.448798e-01
xvco.net2 = 6.974680e-01
xvco.net3 = 7.245095e-01
xvco.net4 = 9.695851e-01
xvco.net5 = 1.499636e+00
xvco.net6 = 1.298217e+00
xvco.net7 = 1.619982e+00
xvco.vbe = 7.439667e-01
xvco.xr1.xsky130_fd_pr__res_xhigh_po_1p41.ra = 1.737582e-03
xvco.xr3.xsky130_fd_pr__res_xhigh_po_1p41.ra = 1.787141e-03
xvco.xr4.xsky130_fd_pr__res_xhigh_po_1p41.ra = 6.976854e-01
