Warning: m=xx on .subckt line will override multiplier m hierarchy!

Note: Starting dynamic gmin stepping
Trying gmin =   1.0000E-03 Note: One successful gmin step
Trying gmin =   1.0000E-04 Note: One successful gmin step
Trying gmin =   1.0000E-05 Note: One successful gmin step
Trying gmin =   1.0000E-06 Note: One successful gmin step
Trying gmin =   1.0000E-07 Note: One successful gmin step
Trying gmin =   1.0000E-08 Note: One successful gmin step
Trying gmin =   1.0000E-09 Note: One successful gmin step
Trying gmin =   1.0000E-10 Note: One successful gmin step
Trying gmin =   1.0000E-11 Note: One successful gmin step
Trying gmin =   3.1623E-12 Note: One successful gmin step
Trying gmin =   1.0000E-12 Note: One successful gmin step
Note: Dynamic gmin stepping completed
 Reference value :  0.00000e+00Note: No ".plot", ".print", or ".fourier" lines; no simulations run

Note: Compatibility modes selected: hs a


Circuit: ** test bench for bgr

option SCALE: Scale is set to 1e-06 for instance and model parameters
Doing analysis at TEMP = 30.000000 and TNOM = 30.000000


No. of Data Rows : 1
iref = 7.485733e+00
iref = 7.485733e+00
m.xvco.xm2.msky130_fd_pr__pfet_g5v0d10v5#body = 1.800000e+00
m.xvco.xm2.msky130_fd_pr__pfet_g5v0d10v5#dbody = 1.800000e+00
m.xvco.xm2.msky130_fd_pr__pfet_g5v0d10v5#sbody = 1.800000e+00
m.xvco.xm13.msky130_fd_pr__pfet_g5v0d10v5#body = 1.800000e+00
m.xvco.xm13.msky130_fd_pr__pfet_g5v0d10v5#dbody = 1.800000e+00
m.xvco.xm13.msky130_fd_pr__pfet_g5v0d10v5#sbody = 1.800000e+00
m.xvco.xm14.msky130_fd_pr__pfet_g5v0d10v5#body = 1.800000e+00
m.xvco.xm14.msky130_fd_pr__pfet_g5v0d10v5#dbody = 1.800000e+00
m.xvco.xm14.msky130_fd_pr__pfet_g5v0d10v5#sbody = 1.800000e+00
m.xvco.xm15.msky130_fd_pr__pfet_g5v0d10v5#body = 1.800000e+00
m.xvco.xm15.msky130_fd_pr__pfet_g5v0d10v5#dbody = 1.800000e+00
m.xvco.xm15.msky130_fd_pr__pfet_g5v0d10v5#sbody = 1.800000e+00
m.xvco.xm16.msky130_fd_pr__pfet_g5v0d10v5#body = 1.800000e+00
m.xvco.xm16.msky130_fd_pr__pfet_g5v0d10v5#dbody = 1.800000e+00
m.xvco.xm16.msky130_fd_pr__pfet_g5v0d10v5#sbody = 1.800000e+00
m.xvco.xm17.msky130_fd_pr__pfet_g5v0d10v5#body = 1.800000e+00
m.xvco.xm17.msky130_fd_pr__pfet_g5v0d10v5#dbody = 1.800000e+00
m.xvco.xm17.msky130_fd_pr__pfet_g5v0d10v5#sbody = 1.800000e+00
m.xvco.xm18.msky130_fd_pr__pfet_g5v0d10v5#body = 1.800000e+00
m.xvco.xm18.msky130_fd_pr__pfet_g5v0d10v5#dbody = 1.800000e+00
m.xvco.xm18.msky130_fd_pr__pfet_g5v0d10v5#sbody = 1.800000e+00
m.xvco.xm19.msky130_fd_pr__nfet_g5v0d10v5#body = 1.349520e-11
m.xvco.xm19.msky130_fd_pr__nfet_g5v0d10v5#dbody = 3.373798e-11
m.xvco.xm19.msky130_fd_pr__nfet_g5v0d10v5#sbody = 6.747612e-12
m.xvco.xm20.msky130_fd_pr__nfet_g5v0d10v5#body = 1.264759e-11
m.xvco.xm20.msky130_fd_pr__nfet_g5v0d10v5#dbody = 3.161898e-11
m.xvco.xm20.msky130_fd_pr__nfet_g5v0d10v5#sbody = 6.323797e-12
m.xvco.xm21.msky130_fd_pr__nfet_g5v0d10v5#body = 1.088654e-11
m.xvco.xm21.msky130_fd_pr__nfet_g5v0d10v5#dbody = 2.721634e-11
m.xvco.xm21.msky130_fd_pr__nfet_g5v0d10v5#sbody = 5.443271e-12
m.xvco.xm22.msky130_fd_pr__pfet_g5v0d10v5#body = 1.800000e+00
m.xvco.xm22.msky130_fd_pr__pfet_g5v0d10v5#dbody = 1.800000e+00
m.xvco.xm22.msky130_fd_pr__pfet_g5v0d10v5#sbody = 1.800000e+00
m.xvco.xm23.msky130_fd_pr__nfet_g5v0d10v5#body = 1.170744e-11
m.xvco.xm23.msky130_fd_pr__nfet_g5v0d10v5#dbody = 2.926859e-11
m.xvco.xm23.msky130_fd_pr__nfet_g5v0d10v5#sbody = 5.853719e-12
m.xvco.xm24.msky130_fd_pr__pfet_g5v0d10v5#body = 1.800000e+00
m.xvco.xm24.msky130_fd_pr__pfet_g5v0d10v5#dbody = 1.800000e+00
m.xvco.xm24.msky130_fd_pr__pfet_g5v0d10v5#sbody = 1.800000e+00
out = 9.000000e-01
q.xvco.xq2.qsky130_fd_pr__pnp_05v5_w0p68l0p68#collcx = 3.849446e-14
q.xvco.xq3.qsky130_fd_pr__pnp_05v5_w0p68l0p68#collcx = 3.849446e-14
q.xvco.xq4.qsky130_fd_pr__pnp_05v5_w0p68l0p68#collcx = 3.849446e-14
q.xvco.xq5.qsky130_fd_pr__pnp_05v5_w0p68l0p68#collcx = 3.849446e-14
q.xvco.xq6.qsky130_fd_pr__pnp_05v5_w0p68l0p68#collcx = 3.849446e-14
q.xvco.xq7.qsky130_fd_pr__pnp_05v5_w0p68l0p68#collcx = 3.849446e-14
q.xvco.xq8.qsky130_fd_pr__pnp_05v5_w0p68l0p68#collcx = 3.849446e-14
q.xvco.xq9.qsky130_fd_pr__pnp_05v5_w0p68l0p68#collcx = 3.849446e-14
q.xvco.xq10.qsky130_fd_pr__pnp_05v5_w0p68l0p68#collcx = 6.802472e-13
vdd = 1.800000e+00
vdd#branch = -1.90401e-05
vtuner#branch = 7.485733e-06
xvco.net1 = 1.079508e+00
xvco.net2 = 1.071843e-01
xvco.net3 = 1.071843e-01
xvco.net4 = 8.708152e-01
xvco.net5 = 1.019089e+00
xvco.net6 = 1.011699e+00
xvco.net7 = 9.364871e-01
xvco.vbe = 1.843360e-01
xvco.xr1.xsky130_fd_pr__res_xhigh_po_1p41.ra = 2.513111e-04
xvco.xr3.xsky130_fd_pr__res_xhigh_po_1p41.ra = 4.329359e-04
xvco.xr4.xsky130_fd_pr__res_xhigh_po_1p41.ra = 1.071843e-01
