Warning: m=xx on .subckt line will override multiplier m hierarchy!

 Reference value :  0.00000e+00Note: No ".plot", ".print", or ".fourier" lines; no simulations run

Note: Compatibility modes selected: hs a


Circuit: ** test bench for bgr

option SCALE: Scale is set to 1e-06 for instance and model parameters
Doing analysis at TEMP = 40.000000 and TNOM = 40.000000


No. of Data Rows : 1
iref = 7.528157e+01
iref = 7.528157e+01
m.xvco.xm2.msky130_fd_pr__pfet_g5v0d10v5#body = 1.620000e+00
m.xvco.xm2.msky130_fd_pr__pfet_g5v0d10v5#dbody = 1.620000e+00
m.xvco.xm2.msky130_fd_pr__pfet_g5v0d10v5#sbody = 1.620000e+00
m.xvco.xm13.msky130_fd_pr__pfet_g5v0d10v5#body = 1.620000e+00
m.xvco.xm13.msky130_fd_pr__pfet_g5v0d10v5#dbody = 1.620000e+00
m.xvco.xm13.msky130_fd_pr__pfet_g5v0d10v5#sbody = 1.620000e+00
m.xvco.xm14.msky130_fd_pr__pfet_g5v0d10v5#body = 1.620000e+00
m.xvco.xm14.msky130_fd_pr__pfet_g5v0d10v5#dbody = 1.620000e+00
m.xvco.xm14.msky130_fd_pr__pfet_g5v0d10v5#sbody = 1.620000e+00
m.xvco.xm15.msky130_fd_pr__pfet_g5v0d10v5#body = 1.620000e+00
m.xvco.xm15.msky130_fd_pr__pfet_g5v0d10v5#dbody = 1.620000e+00
m.xvco.xm15.msky130_fd_pr__pfet_g5v0d10v5#sbody = 1.620000e+00
m.xvco.xm16.msky130_fd_pr__pfet_g5v0d10v5#body = 1.620000e+00
m.xvco.xm16.msky130_fd_pr__pfet_g5v0d10v5#dbody = 1.620000e+00
m.xvco.xm16.msky130_fd_pr__pfet_g5v0d10v5#sbody = 1.620000e+00
m.xvco.xm17.msky130_fd_pr__pfet_g5v0d10v5#body = 1.620000e+00
m.xvco.xm17.msky130_fd_pr__pfet_g5v0d10v5#dbody = 1.620000e+00
m.xvco.xm17.msky130_fd_pr__pfet_g5v0d10v5#sbody = 1.620000e+00
m.xvco.xm18.msky130_fd_pr__pfet_g5v0d10v5#body = 1.620000e+00
m.xvco.xm18.msky130_fd_pr__pfet_g5v0d10v5#dbody = 1.620000e+00
m.xvco.xm18.msky130_fd_pr__pfet_g5v0d10v5#sbody = 1.620000e+00
m.xvco.xm19.msky130_fd_pr__nfet_g5v0d10v5#body = 9.770325e-12
m.xvco.xm19.msky130_fd_pr__nfet_g5v0d10v5#dbody = 2.442571e-11
m.xvco.xm19.msky130_fd_pr__nfet_g5v0d10v5#sbody = 4.885258e-12
m.xvco.xm20.msky130_fd_pr__nfet_g5v0d10v5#body = 1.597735e-11
m.xvco.xm20.msky130_fd_pr__nfet_g5v0d10v5#dbody = 3.994332e-11
m.xvco.xm20.msky130_fd_pr__nfet_g5v0d10v5#sbody = 7.988681e-12
m.xvco.xm21.msky130_fd_pr__nfet_g5v0d10v5#body = 1.193240e-11
m.xvco.xm21.msky130_fd_pr__nfet_g5v0d10v5#dbody = 2.983098e-11
m.xvco.xm21.msky130_fd_pr__nfet_g5v0d10v5#sbody = 5.966205e-12
m.xvco.xm22.msky130_fd_pr__pfet_g5v0d10v5#body = 1.620000e+00
m.xvco.xm22.msky130_fd_pr__pfet_g5v0d10v5#dbody = 1.620000e+00
m.xvco.xm22.msky130_fd_pr__pfet_g5v0d10v5#sbody = 1.620000e+00
m.xvco.xm23.msky130_fd_pr__nfet_g5v0d10v5#body = 2.026900e-11
m.xvco.xm23.msky130_fd_pr__nfet_g5v0d10v5#dbody = 5.064382e-11
m.xvco.xm23.msky130_fd_pr__nfet_g5v0d10v5#sbody = 1.013450e-11
m.xvco.xm24.msky130_fd_pr__pfet_g5v0d10v5#body = 1.620000e+00
m.xvco.xm24.msky130_fd_pr__pfet_g5v0d10v5#dbody = 1.620000e+00
m.xvco.xm24.msky130_fd_pr__pfet_g5v0d10v5#sbody = 1.620000e+00
out = 9.000000e-01
q.xvco.xq2.qsky130_fd_pr__pnp_05v5_w0p68l0p68#collcx = 6.868005e-05
q.xvco.xq3.qsky130_fd_pr__pnp_05v5_w0p68l0p68#collcx = 6.868005e-05
q.xvco.xq4.qsky130_fd_pr__pnp_05v5_w0p68l0p68#collcx = 6.868005e-05
q.xvco.xq5.qsky130_fd_pr__pnp_05v5_w0p68l0p68#collcx = 6.868005e-05
q.xvco.xq6.qsky130_fd_pr__pnp_05v5_w0p68l0p68#collcx = 6.868005e-05
q.xvco.xq7.qsky130_fd_pr__pnp_05v5_w0p68l0p68#collcx = 6.868005e-05
q.xvco.xq8.qsky130_fd_pr__pnp_05v5_w0p68l0p68#collcx = 6.868005e-05
q.xvco.xq9.qsky130_fd_pr__pnp_05v5_w0p68l0p68#collcx = 6.868005e-05
q.xvco.xq10.qsky130_fd_pr__pnp_05v5_w0p68l0p68#collcx = 4.136869e-04
vdd = 1.620000e+00
vdd#branch = -1.49894e-04
vtuner#branch = 7.528157e-05
xvco.net1 = 7.811965e-01
xvco.net2 = 6.635286e-01
xvco.net3 = 6.944732e-01
xvco.net4 = 9.541627e-01
xvco.net5 = 1.445141e+00
xvco.net6 = 1.277757e+00
xvco.net7 = 1.619944e+00
xvco.vbe = 7.145639e-01
xvco.xr1.xsky130_fd_pr__res_xhigh_po_1p41.ra = 1.710506e-03
xvco.xr3.xsky130_fd_pr__res_xhigh_po_1p41.ra = 1.762922e-03
xvco.xr4.xsky130_fd_pr__res_xhigh_po_1p41.ra = 6.637846e-01
