Warning: m=xx on .subckt line will override multiplier m hierarchy!

 Reference value :  0.00000e+00Note: No ".plot", ".print", or ".fourier" lines; no simulations run

Note: Compatibility modes selected: hs a


Circuit: ** test bench for bgr

option SCALE: Scale is set to 1e-06 for instance and model parameters
Doing analysis at TEMP = 40.000000 and TNOM = 40.000000


No. of Data Rows : 1
iref = 7.863847e+01
iref = 7.863847e+01
m.xvco.xm2.msky130_fd_pr__pfet_g5v0d10v5#body = 1.800000e+00
m.xvco.xm2.msky130_fd_pr__pfet_g5v0d10v5#dbody = 1.800000e+00
m.xvco.xm2.msky130_fd_pr__pfet_g5v0d10v5#sbody = 1.800000e+00
m.xvco.xm13.msky130_fd_pr__pfet_g5v0d10v5#body = 1.800000e+00
m.xvco.xm13.msky130_fd_pr__pfet_g5v0d10v5#dbody = 1.800000e+00
m.xvco.xm13.msky130_fd_pr__pfet_g5v0d10v5#sbody = 1.800000e+00
m.xvco.xm14.msky130_fd_pr__pfet_g5v0d10v5#body = 1.800000e+00
m.xvco.xm14.msky130_fd_pr__pfet_g5v0d10v5#dbody = 1.800000e+00
m.xvco.xm14.msky130_fd_pr__pfet_g5v0d10v5#sbody = 1.800000e+00
m.xvco.xm15.msky130_fd_pr__pfet_g5v0d10v5#body = 1.800000e+00
m.xvco.xm15.msky130_fd_pr__pfet_g5v0d10v5#dbody = 1.800000e+00
m.xvco.xm15.msky130_fd_pr__pfet_g5v0d10v5#sbody = 1.800000e+00
m.xvco.xm16.msky130_fd_pr__pfet_g5v0d10v5#body = 1.800000e+00
m.xvco.xm16.msky130_fd_pr__pfet_g5v0d10v5#dbody = 1.800000e+00
m.xvco.xm16.msky130_fd_pr__pfet_g5v0d10v5#sbody = 1.800000e+00
m.xvco.xm17.msky130_fd_pr__pfet_g5v0d10v5#body = 1.800000e+00
m.xvco.xm17.msky130_fd_pr__pfet_g5v0d10v5#dbody = 1.800000e+00
m.xvco.xm17.msky130_fd_pr__pfet_g5v0d10v5#sbody = 1.800000e+00
m.xvco.xm18.msky130_fd_pr__pfet_g5v0d10v5#body = 1.800000e+00
m.xvco.xm18.msky130_fd_pr__pfet_g5v0d10v5#dbody = 1.800000e+00
m.xvco.xm18.msky130_fd_pr__pfet_g5v0d10v5#sbody = 1.800000e+00
m.xvco.xm19.msky130_fd_pr__nfet_g5v0d10v5#body = 1.204857e-11
m.xvco.xm19.msky130_fd_pr__nfet_g5v0d10v5#dbody = 3.012131e-11
m.xvco.xm19.msky130_fd_pr__nfet_g5v0d10v5#sbody = 6.024378e-12
m.xvco.xm20.msky130_fd_pr__nfet_g5v0d10v5#body = 1.576346e-11
m.xvco.xm20.msky130_fd_pr__nfet_g5v0d10v5#dbody = 3.940862e-11
m.xvco.xm20.msky130_fd_pr__nfet_g5v0d10v5#sbody = 7.881740e-12
m.xvco.xm21.msky130_fd_pr__nfet_g5v0d10v5#body = 1.201548e-11
m.xvco.xm21.msky130_fd_pr__nfet_g5v0d10v5#dbody = 3.003870e-11
m.xvco.xm21.msky130_fd_pr__nfet_g5v0d10v5#sbody = 6.007749e-12
m.xvco.xm22.msky130_fd_pr__pfet_g5v0d10v5#body = 1.800000e+00
m.xvco.xm22.msky130_fd_pr__pfet_g5v0d10v5#dbody = 1.800000e+00
m.xvco.xm22.msky130_fd_pr__pfet_g5v0d10v5#sbody = 1.800000e+00
m.xvco.xm23.msky130_fd_pr__nfet_g5v0d10v5#body = 2.305504e-11
m.xvco.xm23.msky130_fd_pr__nfet_g5v0d10v5#dbody = 5.651790e-11
m.xvco.xm23.msky130_fd_pr__nfet_g5v0d10v5#sbody = 1.152752e-11
m.xvco.xm24.msky130_fd_pr__pfet_g5v0d10v5#body = 1.800000e+00
m.xvco.xm24.msky130_fd_pr__pfet_g5v0d10v5#dbody = 1.800000e+00
m.xvco.xm24.msky130_fd_pr__pfet_g5v0d10v5#sbody = 1.800000e+00
out = 9.000000e-01
q.xvco.xq2.qsky130_fd_pr__pnp_05v5_w0p68l0p68#collcx = 7.991087e-05
q.xvco.xq3.qsky130_fd_pr__pnp_05v5_w0p68l0p68#collcx = 7.991087e-05
q.xvco.xq4.qsky130_fd_pr__pnp_05v5_w0p68l0p68#collcx = 7.991087e-05
q.xvco.xq5.qsky130_fd_pr__pnp_05v5_w0p68l0p68#collcx = 7.991087e-05
q.xvco.xq6.qsky130_fd_pr__pnp_05v5_w0p68l0p68#collcx = 7.991087e-05
q.xvco.xq7.qsky130_fd_pr__pnp_05v5_w0p68l0p68#collcx = 7.991087e-05
q.xvco.xq8.qsky130_fd_pr__pnp_05v5_w0p68l0p68#collcx = 7.991087e-05
q.xvco.xq9.qsky130_fd_pr__pnp_05v5_w0p68l0p68#collcx = 7.991087e-05
q.xvco.xq10.qsky130_fd_pr__pnp_05v5_w0p68l0p68#collcx = 5.217125e-04
vdd = 1.800000e+00
vdd#branch = -1.52741e-04
vtuner#branch = 7.863847e-05
xvco.net1 = 9.634559e-01
xvco.net2 = 6.677893e-01
xvco.net3 = 7.037882e-01
xvco.net4 = 9.608095e-01
xvco.net5 = 1.488704e+00
xvco.net6 = 1.260647e+00
xvco.net7 = 1.799186e+00
xvco.vbe = 7.213107e-01
xvco.xr1.xsky130_fd_pr__res_xhigh_po_1p41.ra = 1.734786e-03
xvco.xr3.xsky130_fd_pr__res_xhigh_po_1p41.ra = 1.780565e-03
xvco.xr4.xsky130_fd_pr__res_xhigh_po_1p41.ra = 6.680872e-01
