Warning: m=xx on .subckt line will override multiplier m hierarchy!

 Reference value :  0.00000e+00Note: No ".plot", ".print", or ".fourier" lines; no simulations run

Note: Compatibility modes selected: hs a


Circuit: ** test bench for bgr

option SCALE: Scale is set to 1e-06 for instance and model parameters
Doing analysis at TEMP = 40.000000 and TNOM = 40.000000


No. of Data Rows : 1
iref = 8.077864e+01
iref = 8.077864e+01
m.xvco.xm2.msky130_fd_pr__pfet_g5v0d10v5#body = 1.980000e+00
m.xvco.xm2.msky130_fd_pr__pfet_g5v0d10v5#dbody = 1.980000e+00
m.xvco.xm2.msky130_fd_pr__pfet_g5v0d10v5#sbody = 1.980000e+00
m.xvco.xm13.msky130_fd_pr__pfet_g5v0d10v5#body = 1.980000e+00
m.xvco.xm13.msky130_fd_pr__pfet_g5v0d10v5#dbody = 1.980000e+00
m.xvco.xm13.msky130_fd_pr__pfet_g5v0d10v5#sbody = 1.980000e+00
m.xvco.xm14.msky130_fd_pr__pfet_g5v0d10v5#body = 1.980000e+00
m.xvco.xm14.msky130_fd_pr__pfet_g5v0d10v5#dbody = 1.980000e+00
m.xvco.xm14.msky130_fd_pr__pfet_g5v0d10v5#sbody = 1.980000e+00
m.xvco.xm15.msky130_fd_pr__pfet_g5v0d10v5#body = 1.980000e+00
m.xvco.xm15.msky130_fd_pr__pfet_g5v0d10v5#dbody = 1.980000e+00
m.xvco.xm15.msky130_fd_pr__pfet_g5v0d10v5#sbody = 1.980000e+00
m.xvco.xm16.msky130_fd_pr__pfet_g5v0d10v5#body = 1.980000e+00
m.xvco.xm16.msky130_fd_pr__pfet_g5v0d10v5#dbody = 1.980000e+00
m.xvco.xm16.msky130_fd_pr__pfet_g5v0d10v5#sbody = 1.980000e+00
m.xvco.xm17.msky130_fd_pr__pfet_g5v0d10v5#body = 1.980000e+00
m.xvco.xm17.msky130_fd_pr__pfet_g5v0d10v5#dbody = 1.980000e+00
m.xvco.xm17.msky130_fd_pr__pfet_g5v0d10v5#sbody = 1.980000e+00
m.xvco.xm18.msky130_fd_pr__pfet_g5v0d10v5#body = 1.980000e+00
m.xvco.xm18.msky130_fd_pr__pfet_g5v0d10v5#dbody = 1.980000e+00
m.xvco.xm18.msky130_fd_pr__pfet_g5v0d10v5#sbody = 1.980000e+00
m.xvco.xm19.msky130_fd_pr__nfet_g5v0d10v5#body = 1.433569e-11
m.xvco.xm19.msky130_fd_pr__nfet_g5v0d10v5#dbody = 3.583911e-11
m.xvco.xm19.msky130_fd_pr__nfet_g5v0d10v5#sbody = 7.167934e-12
m.xvco.xm20.msky130_fd_pr__nfet_g5v0d10v5#body = 1.555553e-11
m.xvco.xm20.msky130_fd_pr__nfet_g5v0d10v5#dbody = 3.888880e-11
m.xvco.xm20.msky130_fd_pr__nfet_g5v0d10v5#sbody = 7.777773e-12
m.xvco.xm21.msky130_fd_pr__nfet_g5v0d10v5#body = 1.206411e-11
m.xvco.xm21.msky130_fd_pr__nfet_g5v0d10v5#dbody = 3.016027e-11
m.xvco.xm21.msky130_fd_pr__nfet_g5v0d10v5#sbody = 6.032063e-12
m.xvco.xm22.msky130_fd_pr__pfet_g5v0d10v5#body = 1.980000e+00
m.xvco.xm22.msky130_fd_pr__pfet_g5v0d10v5#dbody = 1.980000e+00
m.xvco.xm22.msky130_fd_pr__pfet_g5v0d10v5#sbody = 1.980000e+00
m.xvco.xm23.msky130_fd_pr__nfet_g5v0d10v5#body = 2.891075e-11
m.xvco.xm23.msky130_fd_pr__nfet_g5v0d10v5#dbody = 6.386843e-11
m.xvco.xm23.msky130_fd_pr__nfet_g5v0d10v5#sbody = 1.445538e-11
m.xvco.xm24.msky130_fd_pr__pfet_g5v0d10v5#body = 1.980000e+00
m.xvco.xm24.msky130_fd_pr__pfet_g5v0d10v5#dbody = 1.980000e+00
m.xvco.xm24.msky130_fd_pr__pfet_g5v0d10v5#sbody = 1.980000e+00
out = 9.000000e-01
q.xvco.xq2.qsky130_fd_pr__pnp_05v5_w0p68l0p68#collcx = 8.700151e-05
q.xvco.xq3.qsky130_fd_pr__pnp_05v5_w0p68l0p68#collcx = 8.700151e-05
q.xvco.xq4.qsky130_fd_pr__pnp_05v5_w0p68l0p68#collcx = 8.700151e-05
q.xvco.xq5.qsky130_fd_pr__pnp_05v5_w0p68l0p68#collcx = 8.700151e-05
q.xvco.xq6.qsky130_fd_pr__pnp_05v5_w0p68l0p68#collcx = 8.700151e-05
q.xvco.xq7.qsky130_fd_pr__pnp_05v5_w0p68l0p68#collcx = 8.700151e-05
q.xvco.xq8.qsky130_fd_pr__pnp_05v5_w0p68l0p68#collcx = 8.700151e-05
q.xvco.xq9.qsky130_fd_pr__pnp_05v5_w0p68l0p68#collcx = 8.700151e-05
q.xvco.xq10.qsky130_fd_pr__pnp_05v5_w0p68l0p68#collcx = 5.918090e-04
vdd = 1.980000e+00
vdd#branch = -1.53666e-04
vtuner#branch = 8.077864e-05
xvco.net1 = 1.146425e+00
xvco.net2 = 6.701830e-01
xvco.net3 = 7.093729e-01
xvco.net4 = 9.646997e-01
xvco.net5 = 1.526590e+00
xvco.net6 = 1.244013e+00
xvco.net7 = 1.976093e+00
xvco.vbe = 7.250039e-01
xvco.xr1.xsky130_fd_pr__res_xhigh_po_1p41.ra = 1.749362e-03
xvco.xr3.xsky130_fd_pr__res_xhigh_po_1p41.ra = 1.790232e-03
xvco.xr4.xsky130_fd_pr__res_xhigh_po_1p41.ra = 6.705073e-01
