Warning: m=xx on .subckt line will override multiplier m hierarchy!

Note: Starting dynamic gmin stepping
Trying gmin =   1.0000E-03 Note: One successful gmin step
Trying gmin =   1.0000E-04 Note: One successful gmin step
Trying gmin =   1.0000E-05 Note: One successful gmin step
Trying gmin =   1.0000E-06 Note: One successful gmin step
Trying gmin =   1.0000E-07 Note: One successful gmin step
Trying gmin =   1.0000E-08 Note: One successful gmin step
Trying gmin =   1.0000E-09 Note: One successful gmin step
Trying gmin =   1.0000E-10 Note: One successful gmin step
Trying gmin =   1.0000E-11 Warning: Further gmin increment
Trying gmin =   5.6234E-11 Note: One successful gmin step
Trying gmin =   2.3714E-11 Warning: Further gmin increment
Trying gmin =   4.5316E-11 Note: One successful gmin step
Trying gmin =   3.2781E-11 Warning: Further gmin increment
Trying gmin =   4.1792E-11 Note: One successful gmin step
Trying gmin =   3.7013E-11 Warning: Further gmin increment
Trying gmin =   4.0542E-11 Note: One successful gmin step
Trying gmin =   3.8738E-11 Warning: Further gmin increment
Trying gmin =   4.0084E-11 Note: One successful gmin step
Trying gmin =   3.9405E-11 Warning: Further gmin increment
Trying gmin =   3.9913E-11 Note: One successful gmin step
Trying gmin =   3.9658E-11 Note: One successful gmin step
Trying gmin =   3.9279E-11 Warning: Further gmin increment
Trying gmin =   3.9563E-11 Note: One successful gmin step
Trying gmin =   3.9421E-11 Warning: Further gmin increment
Trying gmin =   3.9527E-11 Note: One successful gmin step
Trying gmin =   3.9474E-11 Note: One successful gmin step
Trying gmin =   3.9394E-11 Warning: Further gmin increment
Trying gmin =   3.9454E-11 Note: One successful gmin step
Trying gmin =   3.9424E-11 Note: One successful gmin step
Trying gmin =   3.9379E-11 Warning: Further gmin increment
Trying gmin =   3.9413E-11 Warning: Further gmin increment
Trying gmin =   3.9421E-11 Note: One successful gmin step
Trying gmin =   3.9417E-11 Note: One successful gmin step
Trying gmin =   3.9415E-11 Note: One successful gmin step
Trying gmin =   3.9412E-11 Warning: Further gmin increment
Trying gmin =   3.9414E-11 Warning: Last gmin step failed
Note: Dynamic gmin stepping completed
 Reference value :  0.00000e+00Note: No ".plot", ".print", or ".fourier" lines; no simulations run

Note: Compatibility modes selected: hs a


Circuit: ** test bench for bgr

option SCALE: Scale is set to 1e-06 for instance and model parameters
Doing analysis at TEMP = 50.000000 and TNOM = 50.000000


No. of Data Rows : 1
iref = 8.053662e+01
iref = 8.053662e+01
m.xvco.xm2.msky130_fd_pr__pfet_g5v0d10v5#body = 1.980000e+00
m.xvco.xm2.msky130_fd_pr__pfet_g5v0d10v5#dbody = 1.980000e+00
m.xvco.xm2.msky130_fd_pr__pfet_g5v0d10v5#sbody = 1.980000e+00
m.xvco.xm13.msky130_fd_pr__pfet_g5v0d10v5#body = 1.980000e+00
m.xvco.xm13.msky130_fd_pr__pfet_g5v0d10v5#dbody = 1.980000e+00
m.xvco.xm13.msky130_fd_pr__pfet_g5v0d10v5#sbody = 1.980000e+00
m.xvco.xm14.msky130_fd_pr__pfet_g5v0d10v5#body = 1.980000e+00
m.xvco.xm14.msky130_fd_pr__pfet_g5v0d10v5#dbody = 1.980000e+00
m.xvco.xm14.msky130_fd_pr__pfet_g5v0d10v5#sbody = 1.980000e+00
m.xvco.xm15.msky130_fd_pr__pfet_g5v0d10v5#body = 1.980000e+00
m.xvco.xm15.msky130_fd_pr__pfet_g5v0d10v5#dbody = 1.980000e+00
m.xvco.xm15.msky130_fd_pr__pfet_g5v0d10v5#sbody = 1.980000e+00
m.xvco.xm16.msky130_fd_pr__pfet_g5v0d10v5#body = 1.980000e+00
m.xvco.xm16.msky130_fd_pr__pfet_g5v0d10v5#dbody = 1.980000e+00
m.xvco.xm16.msky130_fd_pr__pfet_g5v0d10v5#sbody = 1.980000e+00
m.xvco.xm17.msky130_fd_pr__pfet_g5v0d10v5#body = 1.980000e+00
m.xvco.xm17.msky130_fd_pr__pfet_g5v0d10v5#dbody = 1.980000e+00
m.xvco.xm17.msky130_fd_pr__pfet_g5v0d10v5#sbody = 1.980000e+00
m.xvco.xm18.msky130_fd_pr__pfet_g5v0d10v5#body = 1.980000e+00
m.xvco.xm18.msky130_fd_pr__pfet_g5v0d10v5#dbody = 1.980000e+00
m.xvco.xm18.msky130_fd_pr__pfet_g5v0d10v5#sbody = 1.980000e+00
m.xvco.xm19.msky130_fd_pr__nfet_g5v0d10v5#body = 1.457714e-11
m.xvco.xm19.msky130_fd_pr__nfet_g5v0d10v5#dbody = 3.644274e-11
m.xvco.xm19.msky130_fd_pr__nfet_g5v0d10v5#sbody = 7.288660e-12
m.xvco.xm20.msky130_fd_pr__nfet_g5v0d10v5#body = 1.544150e-11
m.xvco.xm20.msky130_fd_pr__nfet_g5v0d10v5#dbody = 3.860373e-11
m.xvco.xm20.msky130_fd_pr__nfet_g5v0d10v5#sbody = 7.720760e-12
m.xvco.xm21.msky130_fd_pr__nfet_g5v0d10v5#body = 1.194973e-11
m.xvco.xm21.msky130_fd_pr__nfet_g5v0d10v5#dbody = 2.987431e-11
m.xvco.xm21.msky130_fd_pr__nfet_g5v0d10v5#sbody = 5.974872e-12
m.xvco.xm22.msky130_fd_pr__pfet_g5v0d10v5#body = 1.980000e+00
m.xvco.xm22.msky130_fd_pr__pfet_g5v0d10v5#dbody = 1.980000e+00
m.xvco.xm22.msky130_fd_pr__pfet_g5v0d10v5#sbody = 1.980000e+00
m.xvco.xm23.msky130_fd_pr__nfet_g5v0d10v5#body = 2.867790e-11
m.xvco.xm23.msky130_fd_pr__nfet_g5v0d10v5#dbody = 6.376929e-11
m.xvco.xm23.msky130_fd_pr__nfet_g5v0d10v5#sbody = 1.433895e-11
m.xvco.xm24.msky130_fd_pr__pfet_g5v0d10v5#body = 1.980000e+00
m.xvco.xm24.msky130_fd_pr__pfet_g5v0d10v5#dbody = 1.980000e+00
m.xvco.xm24.msky130_fd_pr__pfet_g5v0d10v5#sbody = 1.980000e+00
out = 9.000000e-01
q.xvco.xq2.qsky130_fd_pr__pnp_05v5_w0p68l0p68#collcx = 9.227573e-05
q.xvco.xq3.qsky130_fd_pr__pnp_05v5_w0p68l0p68#collcx = 9.227573e-05
q.xvco.xq4.qsky130_fd_pr__pnp_05v5_w0p68l0p68#collcx = 9.227573e-05
q.xvco.xq5.qsky130_fd_pr__pnp_05v5_w0p68l0p68#collcx = 9.227573e-05
q.xvco.xq6.qsky130_fd_pr__pnp_05v5_w0p68l0p68#collcx = 9.227573e-05
q.xvco.xq7.qsky130_fd_pr__pnp_05v5_w0p68l0p68#collcx = 9.227573e-05
q.xvco.xq8.qsky130_fd_pr__pnp_05v5_w0p68l0p68#collcx = 9.227573e-05
q.xvco.xq9.qsky130_fd_pr__pnp_05v5_w0p68l0p68#collcx = 9.227573e-05
q.xvco.xq10.qsky130_fd_pr__pnp_05v5_w0p68l0p68#collcx = 6.301603e-04
vdd = 1.980000e+00
vdd#branch = -1.51558e-04
vtuner#branch = 8.053662e-05
xvco.net1 = 1.164599e+00
xvco.net2 = 6.526093e-01
xvco.net3 = 6.934119e-01
xvco.net4 = 9.544068e-01
xvco.net5 = 1.496487e+00
xvco.net6 = 1.233748e+00
xvco.net7 = 1.975642e+00
xvco.vbe = 7.094025e-01
xvco.xr1.xsky130_fd_pr__res_xhigh_po_1p41.ra = 1.731910e-03
xvco.xr3.xsky130_fd_pr__res_xhigh_po_1p41.ra = 1.774197e-03
xvco.xr4.xsky130_fd_pr__res_xhigh_po_1p41.ra = 6.529517e-01
