Warning: m=xx on .subckt line will override multiplier m hierarchy!

 Reference value :  0.00000e+00Note: No ".plot", ".print", or ".fourier" lines; no simulations run

Note: Compatibility modes selected: hs a


Circuit: ** test bench for bgr

option SCALE: Scale is set to 1e-06 for instance and model parameters
Doing analysis at TEMP = 60.000000 and TNOM = 60.000000


No. of Data Rows : 1
iref = 7.794058e+01
iref = 7.794058e+01
m.xvco.xm2.msky130_fd_pr__pfet_g5v0d10v5#body = 1.800000e+00
m.xvco.xm2.msky130_fd_pr__pfet_g5v0d10v5#dbody = 1.800000e+00
m.xvco.xm2.msky130_fd_pr__pfet_g5v0d10v5#sbody = 1.800000e+00
m.xvco.xm13.msky130_fd_pr__pfet_g5v0d10v5#body = 1.800000e+00
m.xvco.xm13.msky130_fd_pr__pfet_g5v0d10v5#dbody = 1.800000e+00
m.xvco.xm13.msky130_fd_pr__pfet_g5v0d10v5#sbody = 1.800000e+00
m.xvco.xm14.msky130_fd_pr__pfet_g5v0d10v5#body = 1.800000e+00
m.xvco.xm14.msky130_fd_pr__pfet_g5v0d10v5#dbody = 1.800000e+00
m.xvco.xm14.msky130_fd_pr__pfet_g5v0d10v5#sbody = 1.800000e+00
m.xvco.xm15.msky130_fd_pr__pfet_g5v0d10v5#body = 1.800000e+00
m.xvco.xm15.msky130_fd_pr__pfet_g5v0d10v5#dbody = 1.800000e+00
m.xvco.xm15.msky130_fd_pr__pfet_g5v0d10v5#sbody = 1.800000e+00
m.xvco.xm16.msky130_fd_pr__pfet_g5v0d10v5#body = 1.800000e+00
m.xvco.xm16.msky130_fd_pr__pfet_g5v0d10v5#dbody = 1.800000e+00
m.xvco.xm16.msky130_fd_pr__pfet_g5v0d10v5#sbody = 1.800000e+00
m.xvco.xm17.msky130_fd_pr__pfet_g5v0d10v5#body = 1.800000e+00
m.xvco.xm17.msky130_fd_pr__pfet_g5v0d10v5#dbody = 1.800000e+00
m.xvco.xm17.msky130_fd_pr__pfet_g5v0d10v5#sbody = 1.800000e+00
m.xvco.xm18.msky130_fd_pr__pfet_g5v0d10v5#body = 1.800000e+00
m.xvco.xm18.msky130_fd_pr__pfet_g5v0d10v5#dbody = 1.800000e+00
m.xvco.xm18.msky130_fd_pr__pfet_g5v0d10v5#sbody = 1.800000e+00
m.xvco.xm19.msky130_fd_pr__nfet_g5v0d10v5#body = 1.256635e-11
m.xvco.xm19.msky130_fd_pr__nfet_g5v0d10v5#dbody = 3.141575e-11
m.xvco.xm19.msky130_fd_pr__nfet_g5v0d10v5#sbody = 6.283273e-12
m.xvco.xm20.msky130_fd_pr__nfet_g5v0d10v5#body = 1.555875e-11
m.xvco.xm20.msky130_fd_pr__nfet_g5v0d10v5#dbody = 3.889686e-11
m.xvco.xm20.msky130_fd_pr__nfet_g5v0d10v5#sbody = 7.779386e-12
m.xvco.xm21.msky130_fd_pr__nfet_g5v0d10v5#body = 1.181995e-11
m.xvco.xm21.msky130_fd_pr__nfet_g5v0d10v5#dbody = 2.954986e-11
m.xvco.xm21.msky130_fd_pr__nfet_g5v0d10v5#sbody = 5.909982e-12
m.xvco.xm22.msky130_fd_pr__pfet_g5v0d10v5#body = 1.800000e+00
m.xvco.xm22.msky130_fd_pr__pfet_g5v0d10v5#dbody = 1.800000e+00
m.xvco.xm22.msky130_fd_pr__pfet_g5v0d10v5#sbody = 1.800000e+00
m.xvco.xm23.msky130_fd_pr__nfet_g5v0d10v5#body = 2.320623e-11
m.xvco.xm23.msky130_fd_pr__nfet_g5v0d10v5#dbody = 5.670302e-11
m.xvco.xm23.msky130_fd_pr__nfet_g5v0d10v5#sbody = 1.160311e-11
m.xvco.xm24.msky130_fd_pr__pfet_g5v0d10v5#body = 1.800000e+00
m.xvco.xm24.msky130_fd_pr__pfet_g5v0d10v5#dbody = 1.800000e+00
m.xvco.xm24.msky130_fd_pr__pfet_g5v0d10v5#sbody = 1.800000e+00
out = 9.000000e-01
q.xvco.xq2.qsky130_fd_pr__pnp_05v5_w0p68l0p68#collcx = 8.984550e-05
q.xvco.xq3.qsky130_fd_pr__pnp_05v5_w0p68l0p68#collcx = 8.984550e-05
q.xvco.xq4.qsky130_fd_pr__pnp_05v5_w0p68l0p68#collcx = 8.984550e-05
q.xvco.xq5.qsky130_fd_pr__pnp_05v5_w0p68l0p68#collcx = 8.984550e-05
q.xvco.xq6.qsky130_fd_pr__pnp_05v5_w0p68l0p68#collcx = 8.984550e-05
q.xvco.xq7.qsky130_fd_pr__pnp_05v5_w0p68l0p68#collcx = 8.984550e-05
q.xvco.xq8.qsky130_fd_pr__pnp_05v5_w0p68l0p68#collcx = 8.984550e-05
q.xvco.xq9.qsky130_fd_pr__pnp_05v5_w0p68l0p68#collcx = 8.984550e-05
q.xvco.xq10.qsky130_fd_pr__pnp_05v5_w0p68l0p68#collcx = 5.922959e-04
vdd = 1.800000e+00
vdd#branch = -1.48126e-04
vtuner#branch = 7.794058e-05
xvco.net1 = 9.999688e-01
xvco.net2 = 6.324356e-01
xvco.net3 = 6.714677e-01
xvco.net4 = 9.402579e-01
xvco.net5 = 1.428819e+00
xvco.net6 = 1.239362e+00
xvco.net7 = 1.798659e+00
xvco.vbe = 6.898610e-01
xvco.xr1.xsky130_fd_pr__res_xhigh_po_1p41.ra = 1.697143e-03
xvco.xr3.xsky130_fd_pr__res_xhigh_po_1p41.ra = 1.746276e-03
xvco.xr4.xsky130_fd_pr__res_xhigh_po_1p41.ra = 6.327676e-01
