Warning: m=xx on .subckt line will override multiplier m hierarchy!

Note: Starting dynamic gmin stepping
Trying gmin =   1.0000E-03 Note: One successful gmin step
Trying gmin =   1.0000E-04 Note: One successful gmin step
Trying gmin =   1.0000E-05 Note: One successful gmin step
Trying gmin =   1.0000E-06 Note: One successful gmin step
Trying gmin =   1.0000E-07 Note: One successful gmin step
Trying gmin =   1.0000E-08 Note: One successful gmin step
Trying gmin =   1.0000E-09 Note: One successful gmin step
Trying gmin =   1.0000E-10 Note: One successful gmin step
Trying gmin =   1.0000E-11 Warning: Further gmin increment
Trying gmin =   5.6234E-11 Note: One successful gmin step
Trying gmin =   2.3714E-11 Warning: Further gmin increment
Trying gmin =   4.5316E-11 Note: One successful gmin step
Trying gmin =   3.2781E-11 Warning: Further gmin increment
Trying gmin =   4.1792E-11 Warning: Further gmin increment
Trying gmin =   4.4408E-11 Note: One successful gmin step
Trying gmin =   4.3080E-11 Warning: Further gmin increment
Trying gmin =   4.4072E-11 Warning: Further gmin increment
Trying gmin =   4.4324E-11 Note: One successful gmin step
Trying gmin =   4.4198E-11 Warning: Further gmin increment
Trying gmin =   4.4292E-11 Note: One successful gmin step
Trying gmin =   4.4261E-11 Warning: Further gmin increment
Trying gmin =   4.4284E-11 Note: One successful gmin step
Trying gmin =   4.4273E-11 Warning: Further gmin increment
Trying gmin =   4.4281E-11 Note: One successful gmin step
Trying gmin =   4.4277E-11 Warning: Further gmin increment
Trying gmin =   4.4280E-11 Warning: Last gmin step failed
Note: Dynamic gmin stepping completed
 Reference value :  0.00000e+00Note: No ".plot", ".print", or ".fourier" lines; no simulations run

Note: Compatibility modes selected: hs a


Circuit: ** test bench for bgr

option SCALE: Scale is set to 1e-06 for instance and model parameters
Doing analysis at TEMP = 70.000000 and TNOM = 70.000000


No. of Data Rows : 1
iref = 7.358471e+01
iref = 7.358471e+01
m.xvco.xm2.msky130_fd_pr__pfet_g5v0d10v5#body = 1.620000e+00
m.xvco.xm2.msky130_fd_pr__pfet_g5v0d10v5#dbody = 1.620000e+00
m.xvco.xm2.msky130_fd_pr__pfet_g5v0d10v5#sbody = 1.620000e+00
m.xvco.xm13.msky130_fd_pr__pfet_g5v0d10v5#body = 1.620000e+00
m.xvco.xm13.msky130_fd_pr__pfet_g5v0d10v5#dbody = 1.620000e+00
m.xvco.xm13.msky130_fd_pr__pfet_g5v0d10v5#sbody = 1.620000e+00
m.xvco.xm14.msky130_fd_pr__pfet_g5v0d10v5#body = 1.620000e+00
m.xvco.xm14.msky130_fd_pr__pfet_g5v0d10v5#dbody = 1.620000e+00
m.xvco.xm14.msky130_fd_pr__pfet_g5v0d10v5#sbody = 1.620000e+00
m.xvco.xm15.msky130_fd_pr__pfet_g5v0d10v5#body = 1.620000e+00
m.xvco.xm15.msky130_fd_pr__pfet_g5v0d10v5#dbody = 1.620000e+00
m.xvco.xm15.msky130_fd_pr__pfet_g5v0d10v5#sbody = 1.620000e+00
m.xvco.xm16.msky130_fd_pr__pfet_g5v0d10v5#body = 1.620000e+00
m.xvco.xm16.msky130_fd_pr__pfet_g5v0d10v5#dbody = 1.620000e+00
m.xvco.xm16.msky130_fd_pr__pfet_g5v0d10v5#sbody = 1.620000e+00
m.xvco.xm17.msky130_fd_pr__pfet_g5v0d10v5#body = 1.620000e+00
m.xvco.xm17.msky130_fd_pr__pfet_g5v0d10v5#dbody = 1.620000e+00
m.xvco.xm17.msky130_fd_pr__pfet_g5v0d10v5#sbody = 1.620000e+00
m.xvco.xm18.msky130_fd_pr__pfet_g5v0d10v5#body = 1.620000e+00
m.xvco.xm18.msky130_fd_pr__pfet_g5v0d10v5#dbody = 1.620000e+00
m.xvco.xm18.msky130_fd_pr__pfet_g5v0d10v5#sbody = 1.620000e+00
m.xvco.xm19.msky130_fd_pr__nfet_g5v0d10v5#body = 1.066943e-11
m.xvco.xm19.msky130_fd_pr__nfet_g5v0d10v5#dbody = 2.667344e-11
m.xvco.xm19.msky130_fd_pr__nfet_g5v0d10v5#sbody = 5.334845e-12
m.xvco.xm20.msky130_fd_pr__nfet_g5v0d10v5#body = 1.575356e-11
m.xvco.xm20.msky130_fd_pr__nfet_g5v0d10v5#dbody = 3.938387e-11
m.xvco.xm20.msky130_fd_pr__nfet_g5v0d10v5#sbody = 7.876791e-12
m.xvco.xm21.msky130_fd_pr__nfet_g5v0d10v5#body = 1.176647e-11
m.xvco.xm21.msky130_fd_pr__nfet_g5v0d10v5#dbody = 2.941617e-11
m.xvco.xm21.msky130_fd_pr__nfet_g5v0d10v5#sbody = 5.883246e-12
m.xvco.xm22.msky130_fd_pr__pfet_g5v0d10v5#body = 1.620000e+00
m.xvco.xm22.msky130_fd_pr__pfet_g5v0d10v5#dbody = 1.620000e+00
m.xvco.xm22.msky130_fd_pr__pfet_g5v0d10v5#sbody = 1.620000e+00
m.xvco.xm23.msky130_fd_pr__nfet_g5v0d10v5#body = 2.050256e-11
m.xvco.xm23.msky130_fd_pr__nfet_g5v0d10v5#dbody = 5.116851e-11
m.xvco.xm23.msky130_fd_pr__nfet_g5v0d10v5#sbody = 1.025128e-11
m.xvco.xm24.msky130_fd_pr__pfet_g5v0d10v5#body = 1.620000e+00
m.xvco.xm24.msky130_fd_pr__pfet_g5v0d10v5#dbody = 1.620000e+00
m.xvco.xm24.msky130_fd_pr__pfet_g5v0d10v5#sbody = 1.620000e+00
out = 9.000000e-01
q.xvco.xq2.qsky130_fd_pr__pnp_05v5_w0p68l0p68#collcx = 8.116552e-05
q.xvco.xq3.qsky130_fd_pr__pnp_05v5_w0p68l0p68#collcx = 8.116552e-05
q.xvco.xq4.qsky130_fd_pr__pnp_05v5_w0p68l0p68#collcx = 8.116552e-05
q.xvco.xq5.qsky130_fd_pr__pnp_05v5_w0p68l0p68#collcx = 8.116552e-05
q.xvco.xq6.qsky130_fd_pr__pnp_05v5_w0p68l0p68#collcx = 8.116552e-05
q.xvco.xq7.qsky130_fd_pr__pnp_05v5_w0p68l0p68#collcx = 8.116552e-05
q.xvco.xq8.qsky130_fd_pr__pnp_05v5_w0p68l0p68#collcx = 8.116552e-05
q.xvco.xq9.qsky130_fd_pr__pnp_05v5_w0p68l0p68#collcx = 8.116552e-05
q.xvco.xq10.qsky130_fd_pr__pnp_05v5_w0p68l0p68#collcx = 4.963215e-04
vdd = 1.620000e+00
vdd#branch = -1.41863e-04
vtuner#branch = 7.358471e-05
xvco.net1 = 8.366277e-01
xvco.net2 = 6.097741e-01
xvco.net3 = 6.444455e-01
xvco.net4 = 9.243928e-01
xvco.net5 = 1.356008e+00
xvco.net6 = 1.243359e+00
xvco.net7 = 1.619765e+00
xvco.vbe = 6.663875e-01
xvco.xr1.xsky130_fd_pr__res_xhigh_po_1p41.ra = 1.647017e-03
xvco.xr3.xsky130_fd_pr__res_xhigh_po_1p41.ra = 1.706152e-03
xvco.xr4.xsky130_fd_pr__res_xhigh_po_1p41.ra = 6.100730e-01
