Warning: m=xx on .subckt line will override multiplier m hierarchy!

Note: Starting dynamic gmin stepping
Trying gmin =   1.0000E-03 Note: One successful gmin step
Trying gmin =   1.0000E-04 Note: One successful gmin step
Trying gmin =   1.0000E-05 Note: One successful gmin step
Trying gmin =   1.0000E-06 Note: One successful gmin step
Trying gmin =   1.0000E-07 Note: One successful gmin step
Trying gmin =   1.0000E-08 Note: One successful gmin step
Trying gmin =   1.0000E-09 Note: One successful gmin step
Trying gmin =   1.0000E-10 Note: One successful gmin step
Trying gmin =   1.0000E-11 Warning: Further gmin increment
Trying gmin =   5.6234E-11 Warning: Further gmin increment
Trying gmin =   8.6596E-11 Note: One successful gmin step
Trying gmin =   6.9783E-11 Warning: Further gmin increment
Trying gmin =   8.2047E-11 Note: One successful gmin step
Trying gmin =   7.5667E-11 Note: One successful gmin step
Trying gmin =   6.7015E-11 Warning: Further gmin increment
Trying gmin =   7.3404E-11 Note: One successful gmin step
Trying gmin =   7.0137E-11 Note: One successful gmin step
Trying gmin =   6.8558E-11 Note: One successful gmin step
Trying gmin =   6.6256E-11 Note: One successful gmin step
Trying gmin =   6.2948E-11 Note: One successful gmin step
Trying gmin =   5.8292E-11 Note: One successful gmin step
Trying gmin =   5.1946E-11 Note: One successful gmin step
Trying gmin =   4.3699E-11 Note: One successful gmin step
Trying gmin =   3.3716E-11 Note: One successful gmin step
Trying gmin =   2.2851E-11 Note: One successful gmin step
Trying gmin =   1.2749E-11 Note: One successful gmin step
Trying gmin =   5.3134E-12 Note: One successful gmin step
Trying gmin =   1.4296E-12 Note: One successful gmin step
Trying gmin =   1.0000E-12 Note: One successful gmin step
Note: Dynamic gmin stepping completed
 Reference value :  0.00000e+00Note: No ".plot", ".print", or ".fourier" lines; no simulations run

Note: Compatibility modes selected: hs a


Circuit: ** test bench for bgr

option SCALE: Scale is set to 1e-06 for instance and model parameters
Doing analysis at TEMP = 80.000000 and TNOM = 80.000000


No. of Data Rows : 1
iref = 7.690009e+01
iref = 7.690009e+01
m.xvco.xm2.msky130_fd_pr__pfet_g5v0d10v5#body = 1.800000e+00
m.xvco.xm2.msky130_fd_pr__pfet_g5v0d10v5#dbody = 1.800000e+00
m.xvco.xm2.msky130_fd_pr__pfet_g5v0d10v5#sbody = 1.800000e+00
m.xvco.xm13.msky130_fd_pr__pfet_g5v0d10v5#body = 1.800000e+00
m.xvco.xm13.msky130_fd_pr__pfet_g5v0d10v5#dbody = 1.800000e+00
m.xvco.xm13.msky130_fd_pr__pfet_g5v0d10v5#sbody = 1.800000e+00
m.xvco.xm14.msky130_fd_pr__pfet_g5v0d10v5#body = 1.800000e+00
m.xvco.xm14.msky130_fd_pr__pfet_g5v0d10v5#dbody = 1.800000e+00
m.xvco.xm14.msky130_fd_pr__pfet_g5v0d10v5#sbody = 1.800000e+00
m.xvco.xm15.msky130_fd_pr__pfet_g5v0d10v5#body = 1.800000e+00
m.xvco.xm15.msky130_fd_pr__pfet_g5v0d10v5#dbody = 1.800000e+00
m.xvco.xm15.msky130_fd_pr__pfet_g5v0d10v5#sbody = 1.800000e+00
m.xvco.xm16.msky130_fd_pr__pfet_g5v0d10v5#body = 1.800000e+00
m.xvco.xm16.msky130_fd_pr__pfet_g5v0d10v5#dbody = 1.800000e+00
m.xvco.xm16.msky130_fd_pr__pfet_g5v0d10v5#sbody = 1.800000e+00
m.xvco.xm17.msky130_fd_pr__pfet_g5v0d10v5#body = 1.800000e+00
m.xvco.xm17.msky130_fd_pr__pfet_g5v0d10v5#dbody = 1.800000e+00
m.xvco.xm17.msky130_fd_pr__pfet_g5v0d10v5#sbody = 1.800000e+00
m.xvco.xm18.msky130_fd_pr__pfet_g5v0d10v5#body = 1.800000e+00
m.xvco.xm18.msky130_fd_pr__pfet_g5v0d10v5#dbody = 1.800000e+00
m.xvco.xm18.msky130_fd_pr__pfet_g5v0d10v5#sbody = 1.800000e+00
m.xvco.xm19.msky130_fd_pr__nfet_g5v0d10v5#body = 1.358781e-11
m.xvco.xm19.msky130_fd_pr__nfet_g5v0d10v5#dbody = 3.396931e-11
m.xvco.xm19.msky130_fd_pr__nfet_g5v0d10v5#sbody = 6.794106e-12
m.xvco.xm20.msky130_fd_pr__nfet_g5v0d10v5#body = 1.584440e-11
m.xvco.xm20.msky130_fd_pr__nfet_g5v0d10v5#dbody = 3.961098e-11
m.xvco.xm20.msky130_fd_pr__nfet_g5v0d10v5#sbody = 7.922223e-12
m.xvco.xm21.msky130_fd_pr__nfet_g5v0d10v5#body = 1.212083e-11
m.xvco.xm21.msky130_fd_pr__nfet_g5v0d10v5#dbody = 3.030204e-11
m.xvco.xm21.msky130_fd_pr__nfet_g5v0d10v5#sbody = 6.060431e-12
m.xvco.xm22.msky130_fd_pr__pfet_g5v0d10v5#body = 1.800000e+00
m.xvco.xm22.msky130_fd_pr__pfet_g5v0d10v5#dbody = 1.800000e+00
m.xvco.xm22.msky130_fd_pr__pfet_g5v0d10v5#sbody = 1.800000e+00
m.xvco.xm23.msky130_fd_pr__nfet_g5v0d10v5#body = 2.375367e-11
m.xvco.xm23.msky130_fd_pr__nfet_g5v0d10v5#dbody = 5.808748e-11
m.xvco.xm23.msky130_fd_pr__nfet_g5v0d10v5#sbody = 1.187684e-11
m.xvco.xm24.msky130_fd_pr__pfet_g5v0d10v5#body = 1.800000e+00
m.xvco.xm24.msky130_fd_pr__pfet_g5v0d10v5#dbody = 1.800000e+00
m.xvco.xm24.msky130_fd_pr__pfet_g5v0d10v5#sbody = 1.800000e+00
out = 9.000000e-01
q.xvco.xq2.qsky130_fd_pr__pnp_05v5_w0p68l0p68#collcx = 9.941022e-05
q.xvco.xq3.qsky130_fd_pr__pnp_05v5_w0p68l0p68#collcx = 9.941022e-05
q.xvco.xq4.qsky130_fd_pr__pnp_05v5_w0p68l0p68#collcx = 9.941022e-05
q.xvco.xq5.qsky130_fd_pr__pnp_05v5_w0p68l0p68#collcx = 9.941022e-05
q.xvco.xq6.qsky130_fd_pr__pnp_05v5_w0p68l0p68#collcx = 9.941022e-05
q.xvco.xq7.qsky130_fd_pr__pnp_05v5_w0p68l0p68#collcx = 9.941022e-05
q.xvco.xq8.qsky130_fd_pr__pnp_05v5_w0p68l0p68#collcx = 9.941022e-05
q.xvco.xq9.qsky130_fd_pr__pnp_05v5_w0p68l0p68#collcx = 9.941022e-05
q.xvco.xq10.qsky130_fd_pr__pnp_05v5_w0p68l0p68#collcx = 6.587177e-04
vdd = 1.800000e+00
vdd#branch = -1.43363e-04
vtuner#branch = 7.690009e-05
xvco.net1 = 1.036634e+00
xvco.net2 = 5.964776e-01
xvco.net3 = 6.382558e-01
xvco.net4 = 9.192806e-01
xvco.net5 = 1.368006e+00
xvco.net6 = 1.217167e+00
xvco.net7 = 1.798041e+00
xvco.vbe = 6.576986e-01
xvco.xr1.xsky130_fd_pr__res_xhigh_po_1p41.ra = 1.651556e-03
xvco.xr3.xsky130_fd_pr__res_xhigh_po_1p41.ra = 1.704566e-03
xvco.xr4.xsky130_fd_pr__res_xhigh_po_1p41.ra = 5.968424e-01
