Warning: m=xx on .subckt line will override multiplier m hierarchy!

 Reference value :  0.00000e+00Note: No ".plot", ".print", or ".fourier" lines; no simulations run

Note: Compatibility modes selected: hs a


Circuit: ** test bench for bgr

option SCALE: Scale is set to 1e-06 for instance and model parameters
Doing analysis at TEMP = -20.000000 and TNOM = -20.000000


No. of Data Rows : 1
iref = 8.398838e+01
iref = 8.398838e+01
m.xvco.xm2.msky130_fd_pr__pfet_g5v0d10v5#body = 1.980000e+00
m.xvco.xm2.msky130_fd_pr__pfet_g5v0d10v5#dbody = 1.980000e+00
m.xvco.xm2.msky130_fd_pr__pfet_g5v0d10v5#sbody = 1.980000e+00
m.xvco.xm13.msky130_fd_pr__pfet_g5v0d10v5#body = 1.980000e+00
m.xvco.xm13.msky130_fd_pr__pfet_g5v0d10v5#dbody = 1.980000e+00
m.xvco.xm13.msky130_fd_pr__pfet_g5v0d10v5#sbody = 1.980000e+00
m.xvco.xm14.msky130_fd_pr__pfet_g5v0d10v5#body = 1.980000e+00
m.xvco.xm14.msky130_fd_pr__pfet_g5v0d10v5#dbody = 1.980000e+00
m.xvco.xm14.msky130_fd_pr__pfet_g5v0d10v5#sbody = 1.980000e+00
m.xvco.xm15.msky130_fd_pr__pfet_g5v0d10v5#body = 1.980000e+00
m.xvco.xm15.msky130_fd_pr__pfet_g5v0d10v5#dbody = 1.980000e+00
m.xvco.xm15.msky130_fd_pr__pfet_g5v0d10v5#sbody = 1.980000e+00
m.xvco.xm16.msky130_fd_pr__pfet_g5v0d10v5#body = 1.980000e+00
m.xvco.xm16.msky130_fd_pr__pfet_g5v0d10v5#dbody = 1.980000e+00
m.xvco.xm16.msky130_fd_pr__pfet_g5v0d10v5#sbody = 1.980000e+00
m.xvco.xm17.msky130_fd_pr__pfet_g5v0d10v5#body = 1.980000e+00
m.xvco.xm17.msky130_fd_pr__pfet_g5v0d10v5#dbody = 1.980000e+00
m.xvco.xm17.msky130_fd_pr__pfet_g5v0d10v5#sbody = 1.980000e+00
m.xvco.xm18.msky130_fd_pr__pfet_g5v0d10v5#body = 1.980000e+00
m.xvco.xm18.msky130_fd_pr__pfet_g5v0d10v5#dbody = 1.980000e+00
m.xvco.xm18.msky130_fd_pr__pfet_g5v0d10v5#sbody = 1.980000e+00
m.xvco.xm19.msky130_fd_pr__nfet_g5v0d10v5#body = 1.018894e-11
m.xvco.xm19.msky130_fd_pr__nfet_g5v0d10v5#dbody = 2.547227e-11
m.xvco.xm19.msky130_fd_pr__nfet_g5v0d10v5#sbody = 5.094530e-12
m.xvco.xm20.msky130_fd_pr__nfet_g5v0d10v5#body = 1.018425e-11
m.xvco.xm20.msky130_fd_pr__nfet_g5v0d10v5#dbody = 2.546061e-11
m.xvco.xm20.msky130_fd_pr__nfet_g5v0d10v5#sbody = 5.092128e-12
m.xvco.xm21.msky130_fd_pr__nfet_g5v0d10v5#body = 7.914944e-12
m.xvco.xm21.msky130_fd_pr__nfet_g5v0d10v5#dbody = 1.978736e-11
m.xvco.xm21.msky130_fd_pr__nfet_g5v0d10v5#sbody = 3.957476e-12
m.xvco.xm22.msky130_fd_pr__pfet_g5v0d10v5#body = 1.980000e+00
m.xvco.xm22.msky130_fd_pr__pfet_g5v0d10v5#dbody = 1.980000e+00
m.xvco.xm22.msky130_fd_pr__pfet_g5v0d10v5#sbody = 1.980000e+00
m.xvco.xm23.msky130_fd_pr__nfet_g5v0d10v5#body = 2.695588e-11
m.xvco.xm23.msky130_fd_pr__nfet_g5v0d10v5#dbody = 6.297254e-11
m.xvco.xm23.msky130_fd_pr__nfet_g5v0d10v5#sbody = 1.347794e-11
m.xvco.xm24.msky130_fd_pr__pfet_g5v0d10v5#body = 1.980000e+00
m.xvco.xm24.msky130_fd_pr__pfet_g5v0d10v5#dbody = 1.980000e+00
m.xvco.xm24.msky130_fd_pr__pfet_g5v0d10v5#sbody = 1.980000e+00
out = 9.000000e-01
q.xvco.xq2.qsky130_fd_pr__pnp_05v5_w0p68l0p68#collcx = 6.510980e-05
q.xvco.xq3.qsky130_fd_pr__pnp_05v5_w0p68l0p68#collcx = 6.510980e-05
q.xvco.xq4.qsky130_fd_pr__pnp_05v5_w0p68l0p68#collcx = 6.510980e-05
q.xvco.xq5.qsky130_fd_pr__pnp_05v5_w0p68l0p68#collcx = 6.510980e-05
q.xvco.xq6.qsky130_fd_pr__pnp_05v5_w0p68l0p68#collcx = 6.510980e-05
q.xvco.xq7.qsky130_fd_pr__pnp_05v5_w0p68l0p68#collcx = 6.510980e-05
q.xvco.xq8.qsky130_fd_pr__pnp_05v5_w0p68l0p68#collcx = 6.510980e-05
q.xvco.xq9.qsky130_fd_pr__pnp_05v5_w0p68l0p68#collcx = 6.510980e-05
q.xvco.xq10.qsky130_fd_pr__pnp_05v5_w0p68l0p68#collcx = 4.564771e-04
vdd = 1.980000e+00
vdd#branch = -1.38939e-04
vtuner#branch = 8.398838e-05
xvco.net1 = 8.151145e-01
xvco.net2 = 7.757422e-01
xvco.net3 = 8.091788e-01
xvco.net4 = 6.331955e-01
xvco.net5 = 1.864866e+00
xvco.net6 = 8.147398e-01
xvco.net7 = 1.979784e+00
xvco.vbe = 8.203138e-01
xvco.xr1.xsky130_fd_pr__res_xhigh_po_1p41.ra = 1.837184e-03
xvco.xr3.xsky130_fd_pr__res_xhigh_po_1p41.ra = 1.864201e-03
xvco.xr4.xsky130_fd_pr__res_xhigh_po_1p41.ra = 7.759950e-01
