Warning: m=xx on .subckt line will override multiplier m hierarchy!

Note: Starting dynamic gmin stepping
Trying gmin =   1.0000E-03 Note: One successful gmin step
Trying gmin =   1.0000E-04 Note: One successful gmin step
Trying gmin =   1.0000E-05 Note: One successful gmin step
Trying gmin =   1.0000E-06 Note: One successful gmin step
Trying gmin =   1.0000E-07 Note: One successful gmin step
Trying gmin =   1.0000E-08 Note: One successful gmin step
Trying gmin =   1.0000E-09 Note: One successful gmin step
Trying gmin =   1.0000E-10 Note: One successful gmin step
Trying gmin =   1.0000E-11 Warning: Further gmin increment
Trying gmin =   5.6234E-11 Note: One successful gmin step
Trying gmin =   2.3714E-11 Warning: Further gmin increment
Trying gmin =   4.5316E-11 Note: One successful gmin step
Trying gmin =   3.2781E-11 Warning: Further gmin increment
Trying gmin =   4.1792E-11 Warning: Further gmin increment
Trying gmin =   4.4408E-11 Note: One successful gmin step
Trying gmin =   4.3080E-11 Warning: Further gmin increment
Trying gmin =   4.4072E-11 Note: One successful gmin step
Trying gmin =   4.3573E-11 Note: One successful gmin step
Trying gmin =   4.3326E-11 Warning: Further gmin increment
Trying gmin =   4.3511E-11 Warning: Further gmin increment
Trying gmin =   4.3558E-11 Warning: Further gmin increment
Trying gmin =   4.3569E-11 Warning: Further gmin increment
Trying gmin =   4.3572E-11 Note: One successful gmin step
Trying gmin =   4.3571E-11 Note: One successful gmin step
Trying gmin =   4.3569E-11 Warning: Last gmin step failed
Warning: Dynamic gmin stepping failed
Note: Starting true gmin stepping
Trying gmin =   1.0000E-03 Note: One successful gmin step
Trying gmin =   1.0000E-04 Note: One successful gmin step
Trying gmin =   1.0000E-05 Note: One successful gmin step
Trying gmin =   1.0000E-06 Note: One successful gmin step
Trying gmin =   1.0000E-07 Note: One successful gmin step
Trying gmin =   1.0000E-08 Note: One successful gmin step
Trying gmin =   1.0000E-09 Note: One successful gmin step
Trying gmin =   1.0000E-10 Note: One successful gmin step
Trying gmin =   1.0000E-11 Note: One successful gmin step
Trying gmin =   1.0000E-12 Note: One successful gmin step
Trying gmin =   1.0000E-12 Note: One successful gmin step
Note: True gmin stepping completed
 Reference value :  0.00000e+00Note: No ".plot", ".print", or ".fourier" lines; no simulations run

Note: Compatibility modes selected: hs a


Circuit: ** test bench for bgr

option SCALE: Scale is set to 1e-06 for instance and model parameters
Doing analysis at TEMP = 30.000000 and TNOM = 30.000000


No. of Data Rows : 1
iref = 8.424182e+01
iref = 8.424182e+01
m.xvco.xm2.msky130_fd_pr__pfet_g5v0d10v5#body = 1.980000e+00
m.xvco.xm2.msky130_fd_pr__pfet_g5v0d10v5#dbody = 1.980000e+00
m.xvco.xm2.msky130_fd_pr__pfet_g5v0d10v5#sbody = 1.980000e+00
m.xvco.xm13.msky130_fd_pr__pfet_g5v0d10v5#body = 1.980000e+00
m.xvco.xm13.msky130_fd_pr__pfet_g5v0d10v5#dbody = 1.980000e+00
m.xvco.xm13.msky130_fd_pr__pfet_g5v0d10v5#sbody = 1.980000e+00
m.xvco.xm14.msky130_fd_pr__pfet_g5v0d10v5#body = 1.980000e+00
m.xvco.xm14.msky130_fd_pr__pfet_g5v0d10v5#dbody = 1.980000e+00
m.xvco.xm14.msky130_fd_pr__pfet_g5v0d10v5#sbody = 1.980000e+00
m.xvco.xm15.msky130_fd_pr__pfet_g5v0d10v5#body = 1.980000e+00
m.xvco.xm15.msky130_fd_pr__pfet_g5v0d10v5#dbody = 1.980000e+00
m.xvco.xm15.msky130_fd_pr__pfet_g5v0d10v5#sbody = 1.980000e+00
m.xvco.xm16.msky130_fd_pr__pfet_g5v0d10v5#body = 1.980000e+00
m.xvco.xm16.msky130_fd_pr__pfet_g5v0d10v5#dbody = 1.980000e+00
m.xvco.xm16.msky130_fd_pr__pfet_g5v0d10v5#sbody = 1.980000e+00
m.xvco.xm17.msky130_fd_pr__pfet_g5v0d10v5#body = 1.980000e+00
m.xvco.xm17.msky130_fd_pr__pfet_g5v0d10v5#dbody = 1.980000e+00
m.xvco.xm17.msky130_fd_pr__pfet_g5v0d10v5#sbody = 1.980000e+00
m.xvco.xm18.msky130_fd_pr__pfet_g5v0d10v5#body = 1.980000e+00
m.xvco.xm18.msky130_fd_pr__pfet_g5v0d10v5#dbody = 1.980000e+00
m.xvco.xm18.msky130_fd_pr__pfet_g5v0d10v5#sbody = 1.980000e+00
m.xvco.xm19.msky130_fd_pr__nfet_g5v0d10v5#body = 1.129950e-11
m.xvco.xm19.msky130_fd_pr__nfet_g5v0d10v5#dbody = 2.824868e-11
m.xvco.xm19.msky130_fd_pr__nfet_g5v0d10v5#sbody = 5.649808e-12
m.xvco.xm20.msky130_fd_pr__nfet_g5v0d10v5#body = 9.623879e-12
m.xvco.xm20.msky130_fd_pr__nfet_g5v0d10v5#dbody = 2.405969e-11
m.xvco.xm20.msky130_fd_pr__nfet_g5v0d10v5#sbody = 4.811945e-12
m.xvco.xm21.msky130_fd_pr__nfet_g5v0d10v5#body = 7.251033e-12
m.xvco.xm21.msky130_fd_pr__nfet_g5v0d10v5#dbody = 1.812758e-11
m.xvco.xm21.msky130_fd_pr__nfet_g5v0d10v5#sbody = 3.625521e-12
m.xvco.xm22.msky130_fd_pr__pfet_g5v0d10v5#body = 1.980000e+00
m.xvco.xm22.msky130_fd_pr__pfet_g5v0d10v5#dbody = 1.980000e+00
m.xvco.xm22.msky130_fd_pr__pfet_g5v0d10v5#sbody = 1.980000e+00
m.xvco.xm23.msky130_fd_pr__nfet_g5v0d10v5#body = 3.076928e-11
m.xvco.xm23.msky130_fd_pr__nfet_g5v0d10v5#dbody = 6.485833e-11
m.xvco.xm23.msky130_fd_pr__nfet_g5v0d10v5#sbody = 1.538464e-11
m.xvco.xm24.msky130_fd_pr__pfet_g5v0d10v5#body = 1.980000e+00
m.xvco.xm24.msky130_fd_pr__pfet_g5v0d10v5#dbody = 1.980000e+00
m.xvco.xm24.msky130_fd_pr__pfet_g5v0d10v5#sbody = 1.980000e+00
out = 9.000000e-01
q.xvco.xq2.qsky130_fd_pr__pnp_05v5_w0p68l0p68#collcx = 9.118269e-05
q.xvco.xq3.qsky130_fd_pr__pnp_05v5_w0p68l0p68#collcx = 9.118269e-05
q.xvco.xq4.qsky130_fd_pr__pnp_05v5_w0p68l0p68#collcx = 9.118269e-05
q.xvco.xq5.qsky130_fd_pr__pnp_05v5_w0p68l0p68#collcx = 9.118269e-05
q.xvco.xq6.qsky130_fd_pr__pnp_05v5_w0p68l0p68#collcx = 9.118269e-05
q.xvco.xq7.qsky130_fd_pr__pnp_05v5_w0p68l0p68#collcx = 9.118269e-05
q.xvco.xq8.qsky130_fd_pr__pnp_05v5_w0p68l0p68#collcx = 9.118269e-05
q.xvco.xq9.qsky130_fd_pr__pnp_05v5_w0p68l0p68#collcx = 9.118269e-05
q.xvco.xq10.qsky130_fd_pr__pnp_05v5_w0p68l0p68#collcx = 6.496888e-04
vdd = 1.980000e+00
vdd#branch = -1.37659e-04
vtuner#branch = 8.424182e-05
xvco.net1 = 9.038593e-01
xvco.net2 = 6.905960e-01
xvco.net3 = 7.324683e-01
xvco.net4 = 5.799823e-01
xvco.net5 = 1.727653e+00
xvco.net6 = 7.698100e-01
xvco.net7 = 1.978847e+00
xvco.vbe = 7.450160e-01
xvco.xr1.xsky130_fd_pr__res_xhigh_po_1p41.ra = 1.783915e-03
xvco.xr3.xsky130_fd_pr__res_xhigh_po_1p41.ra = 1.816374e-03
xvco.xr4.xsky130_fd_pr__res_xhigh_po_1p41.ra = 6.909376e-01
