Warning: m=xx on .subckt line will override multiplier m hierarchy!

 Reference value :  0.00000e+00Note: No ".plot", ".print", or ".fourier" lines; no simulations run

Note: Compatibility modes selected: hs a


Circuit: ** test bench for bgr

option SCALE: Scale is set to 1e-06 for instance and model parameters
Doing analysis at TEMP = 40.000000 and TNOM = 40.000000


No. of Data Rows : 1
iref = 5.986743e+01
iref = 5.986743e+01
m.xvco.xm2.msky130_fd_pr__pfet_g5v0d10v5#body = 1.980000e+00
m.xvco.xm2.msky130_fd_pr__pfet_g5v0d10v5#dbody = 1.980000e+00
m.xvco.xm2.msky130_fd_pr__pfet_g5v0d10v5#sbody = 1.980000e+00
m.xvco.xm13.msky130_fd_pr__pfet_g5v0d10v5#body = 1.980000e+00
m.xvco.xm13.msky130_fd_pr__pfet_g5v0d10v5#dbody = 1.980000e+00
m.xvco.xm13.msky130_fd_pr__pfet_g5v0d10v5#sbody = 1.980000e+00
m.xvco.xm14.msky130_fd_pr__pfet_g5v0d10v5#body = 1.980000e+00
m.xvco.xm14.msky130_fd_pr__pfet_g5v0d10v5#dbody = 1.980000e+00
m.xvco.xm14.msky130_fd_pr__pfet_g5v0d10v5#sbody = 1.980000e+00
m.xvco.xm15.msky130_fd_pr__pfet_g5v0d10v5#body = 1.980000e+00
m.xvco.xm15.msky130_fd_pr__pfet_g5v0d10v5#dbody = 1.980000e+00
m.xvco.xm15.msky130_fd_pr__pfet_g5v0d10v5#sbody = 1.980000e+00
m.xvco.xm16.msky130_fd_pr__pfet_g5v0d10v5#body = 1.980000e+00
m.xvco.xm16.msky130_fd_pr__pfet_g5v0d10v5#dbody = 1.980000e+00
m.xvco.xm16.msky130_fd_pr__pfet_g5v0d10v5#sbody = 1.980000e+00
m.xvco.xm17.msky130_fd_pr__pfet_g5v0d10v5#body = 1.980000e+00
m.xvco.xm17.msky130_fd_pr__pfet_g5v0d10v5#dbody = 1.980000e+00
m.xvco.xm17.msky130_fd_pr__pfet_g5v0d10v5#sbody = 1.980000e+00
m.xvco.xm18.msky130_fd_pr__pfet_g5v0d10v5#body = 1.980000e+00
m.xvco.xm18.msky130_fd_pr__pfet_g5v0d10v5#dbody = 1.980000e+00
m.xvco.xm18.msky130_fd_pr__pfet_g5v0d10v5#sbody = 1.980000e+00
m.xvco.xm19.msky130_fd_pr__nfet_g5v0d10v5#body = 1.182447e-11
m.xvco.xm19.msky130_fd_pr__nfet_g5v0d10v5#dbody = 2.956112e-11
m.xvco.xm19.msky130_fd_pr__nfet_g5v0d10v5#sbody = 5.912277e-12
m.xvco.xm20.msky130_fd_pr__nfet_g5v0d10v5#body = 9.092950e-12
m.xvco.xm20.msky130_fd_pr__nfet_g5v0d10v5#dbody = 2.273237e-11
m.xvco.xm20.msky130_fd_pr__nfet_g5v0d10v5#sbody = 4.546479e-12
m.xvco.xm21.msky130_fd_pr__nfet_g5v0d10v5#body = 6.907965e-12
m.xvco.xm21.msky130_fd_pr__nfet_g5v0d10v5#dbody = 1.726991e-11
m.xvco.xm21.msky130_fd_pr__nfet_g5v0d10v5#sbody = 3.453986e-12
m.xvco.xm22.msky130_fd_pr__pfet_g5v0d10v5#body = 1.980000e+00
m.xvco.xm22.msky130_fd_pr__pfet_g5v0d10v5#dbody = 1.980000e+00
m.xvco.xm22.msky130_fd_pr__pfet_g5v0d10v5#sbody = 1.980000e+00
m.xvco.xm23.msky130_fd_pr__nfet_g5v0d10v5#body = 3.132342e-11
m.xvco.xm23.msky130_fd_pr__nfet_g5v0d10v5#dbody = 6.511049e-11
m.xvco.xm23.msky130_fd_pr__nfet_g5v0d10v5#sbody = 1.566171e-11
m.xvco.xm24.msky130_fd_pr__pfet_g5v0d10v5#body = 1.980000e+00
m.xvco.xm24.msky130_fd_pr__pfet_g5v0d10v5#dbody = 1.980000e+00
m.xvco.xm24.msky130_fd_pr__pfet_g5v0d10v5#sbody = 1.980000e+00
out = 9.000000e-01
q.xvco.xq2.qsky130_fd_pr__pnp_05v5_w0p68l0p68#collcx = 1.182161e-05
q.xvco.xq3.qsky130_fd_pr__pnp_05v5_w0p68l0p68#collcx = 1.182161e-05
q.xvco.xq4.qsky130_fd_pr__pnp_05v5_w0p68l0p68#collcx = 1.182161e-05
q.xvco.xq5.qsky130_fd_pr__pnp_05v5_w0p68l0p68#collcx = 1.182161e-05
q.xvco.xq6.qsky130_fd_pr__pnp_05v5_w0p68l0p68#collcx = 1.182161e-05
q.xvco.xq7.qsky130_fd_pr__pnp_05v5_w0p68l0p68#collcx = 1.182161e-05
q.xvco.xq8.qsky130_fd_pr__pnp_05v5_w0p68l0p68#collcx = 1.182161e-05
q.xvco.xq9.qsky130_fd_pr__pnp_05v5_w0p68l0p68#collcx = 1.182161e-05
q.xvco.xq10.qsky130_fd_pr__pnp_05v5_w0p68l0p68#collcx = 2.196067e-05
vdd = 1.980000e+00
vdd#branch = -9.91582e-05
vtuner#branch = 5.986743e-05
xvco.net1 = 9.455580e-01
xvco.net2 = 6.142101e-01
xvco.net3 = 6.195558e-01
xvco.net4 = 5.522380e-01
xvco.net5 = 1.613750e+00
xvco.net6 = 7.270368e-01
xvco.net7 = 1.977552e+00
xvco.vbe = 6.315446e-01
xvco.xr1.xsky130_fd_pr__res_xhigh_po_1p41.ra = 1.516664e-03
xvco.xr3.xsky130_fd_pr__res_xhigh_po_1p41.ra = 1.547511e-03
xvco.xr4.xsky130_fd_pr__res_xhigh_po_1p41.ra = 6.142543e-01
