Warning: m=xx on .subckt line will override multiplier m hierarchy!

 Reference value :  0.00000e+00Note: No ".plot", ".print", or ".fourier" lines; no simulations run

Note: Compatibility modes selected: hs a


Circuit: ** test bench for bgr

option SCALE: Scale is set to 1e-06 for instance and model parameters
Doing analysis at TEMP = 80.000000 and TNOM = 80.000000


No. of Data Rows : 1
iref = 8.328644e+01
iref = 8.328644e+01
m.xvco.xm2.msky130_fd_pr__pfet_g5v0d10v5#body = 1.980000e+00
m.xvco.xm2.msky130_fd_pr__pfet_g5v0d10v5#dbody = 1.980000e+00
m.xvco.xm2.msky130_fd_pr__pfet_g5v0d10v5#sbody = 1.980000e+00
m.xvco.xm13.msky130_fd_pr__pfet_g5v0d10v5#body = 1.980000e+00
m.xvco.xm13.msky130_fd_pr__pfet_g5v0d10v5#dbody = 1.980000e+00
m.xvco.xm13.msky130_fd_pr__pfet_g5v0d10v5#sbody = 1.980000e+00
m.xvco.xm14.msky130_fd_pr__pfet_g5v0d10v5#body = 1.980000e+00
m.xvco.xm14.msky130_fd_pr__pfet_g5v0d10v5#dbody = 1.980000e+00
m.xvco.xm14.msky130_fd_pr__pfet_g5v0d10v5#sbody = 1.980000e+00
m.xvco.xm15.msky130_fd_pr__pfet_g5v0d10v5#body = 1.980000e+00
m.xvco.xm15.msky130_fd_pr__pfet_g5v0d10v5#dbody = 1.980000e+00
m.xvco.xm15.msky130_fd_pr__pfet_g5v0d10v5#sbody = 1.980000e+00
m.xvco.xm16.msky130_fd_pr__pfet_g5v0d10v5#body = 1.980000e+00
m.xvco.xm16.msky130_fd_pr__pfet_g5v0d10v5#dbody = 1.980000e+00
m.xvco.xm16.msky130_fd_pr__pfet_g5v0d10v5#sbody = 1.980000e+00
m.xvco.xm17.msky130_fd_pr__pfet_g5v0d10v5#body = 1.980000e+00
m.xvco.xm17.msky130_fd_pr__pfet_g5v0d10v5#dbody = 1.980000e+00
m.xvco.xm17.msky130_fd_pr__pfet_g5v0d10v5#sbody = 1.980000e+00
m.xvco.xm18.msky130_fd_pr__pfet_g5v0d10v5#body = 1.980000e+00
m.xvco.xm18.msky130_fd_pr__pfet_g5v0d10v5#dbody = 1.980000e+00
m.xvco.xm18.msky130_fd_pr__pfet_g5v0d10v5#sbody = 1.980000e+00
m.xvco.xm19.msky130_fd_pr__nfet_g5v0d10v5#body = 1.298469e-11
m.xvco.xm19.msky130_fd_pr__nfet_g5v0d10v5#dbody = 3.246157e-11
m.xvco.xm19.msky130_fd_pr__nfet_g5v0d10v5#sbody = 6.492475e-12
m.xvco.xm20.msky130_fd_pr__nfet_g5v0d10v5#body = 9.623196e-12
m.xvco.xm20.msky130_fd_pr__nfet_g5v0d10v5#dbody = 2.405798e-11
m.xvco.xm20.msky130_fd_pr__nfet_g5v0d10v5#sbody = 4.811611e-12
m.xvco.xm21.msky130_fd_pr__nfet_g5v0d10v5#body = 7.131500e-12
m.xvco.xm21.msky130_fd_pr__nfet_g5v0d10v5#dbody = 1.782874e-11
m.xvco.xm21.msky130_fd_pr__nfet_g5v0d10v5#sbody = 3.565761e-12
m.xvco.xm22.msky130_fd_pr__pfet_g5v0d10v5#body = 1.980000e+00
m.xvco.xm22.msky130_fd_pr__pfet_g5v0d10v5#dbody = 1.980000e+00
m.xvco.xm22.msky130_fd_pr__pfet_g5v0d10v5#sbody = 1.980000e+00
m.xvco.xm23.msky130_fd_pr__nfet_g5v0d10v5#body = 3.109660e-11
m.xvco.xm23.msky130_fd_pr__nfet_g5v0d10v5#dbody = 6.615423e-11
m.xvco.xm23.msky130_fd_pr__nfet_g5v0d10v5#sbody = 1.554830e-11
m.xvco.xm24.msky130_fd_pr__pfet_g5v0d10v5#body = 1.980000e+00
m.xvco.xm24.msky130_fd_pr__pfet_g5v0d10v5#dbody = 1.980000e+00
m.xvco.xm24.msky130_fd_pr__pfet_g5v0d10v5#sbody = 1.980000e+00
out = 9.000000e-01
q.xvco.xq2.qsky130_fd_pr__pnp_05v5_w0p68l0p68#collcx = 1.192075e-04
q.xvco.xq3.qsky130_fd_pr__pnp_05v5_w0p68l0p68#collcx = 1.192075e-04
q.xvco.xq4.qsky130_fd_pr__pnp_05v5_w0p68l0p68#collcx = 1.192075e-04
q.xvco.xq5.qsky130_fd_pr__pnp_05v5_w0p68l0p68#collcx = 1.192075e-04
q.xvco.xq6.qsky130_fd_pr__pnp_05v5_w0p68l0p68#collcx = 1.192075e-04
q.xvco.xq7.qsky130_fd_pr__pnp_05v5_w0p68l0p68#collcx = 1.192075e-04
q.xvco.xq8.qsky130_fd_pr__pnp_05v5_w0p68l0p68#collcx = 1.192075e-04
q.xvco.xq9.qsky130_fd_pr__pnp_05v5_w0p68l0p68#collcx = 1.192075e-04
q.xvco.xq10.qsky130_fd_pr__pnp_05v5_w0p68l0p68#collcx = 8.566142e-04
vdd = 1.980000e+00
vdd#branch = -1.35055e-04
vtuner#branch = 8.328644e-05
xvco.net1 = 9.918983e-01
xvco.net2 = 6.022555e-01
xvco.net3 = 6.523506e-01
xvco.net4 = 5.236466e-01
xvco.net5 = 1.584269e+00
xvco.net6 = 7.229822e-01
xvco.net7 = 1.977364e+00
xvco.vbe = 6.665542e-01
xvco.xr1.xsky130_fd_pr__res_xhigh_po_1p41.ra = 1.689967e-03
xvco.xr3.xsky130_fd_pr__res_xhigh_po_1p41.ra = 1.728772e-03
xvco.xr4.xsky130_fd_pr__res_xhigh_po_1p41.ra = 6.026929e-01
