Warning: m=xx on .subckt line will override multiplier m hierarchy!

Note: Starting dynamic gmin stepping
Trying gmin =   1.0000E-03 Note: One successful gmin step
Trying gmin =   1.0000E-04 Note: One successful gmin step
Trying gmin =   1.0000E-05 Note: One successful gmin step
Trying gmin =   1.0000E-06 Note: One successful gmin step
Trying gmin =   1.0000E-07 Note: One successful gmin step
Trying gmin =   1.0000E-08 Note: One successful gmin step
Trying gmin =   1.0000E-09 Note: One successful gmin step
Trying gmin =   1.0000E-10 Note: One successful gmin step
Trying gmin =   1.0000E-11 Note: One successful gmin step
Trying gmin =   1.0000E-12 Note: One successful gmin step
Trying gmin =   1.0000E-12 Note: One successful gmin step
Note: Dynamic gmin stepping completed
 Reference value :  0.00000e+00Note: No ".plot", ".print", or ".fourier" lines; no simulations run

Note: Compatibility modes selected: hs a


Circuit: ** test bench for bgr

option SCALE: Scale is set to 1e-06 for instance and model parameters
Doing analysis at TEMP = 90.000000 and TNOM = 90.000000


No. of Data Rows : 1
iref = 2.495678e+00
iref = 2.495678e+00
m.xvco.xm2.msky130_fd_pr__pfet_g5v0d10v5#body = 1.620000e+00
m.xvco.xm2.msky130_fd_pr__pfet_g5v0d10v5#dbody = 1.620000e+00
m.xvco.xm2.msky130_fd_pr__pfet_g5v0d10v5#sbody = 1.620000e+00
m.xvco.xm13.msky130_fd_pr__pfet_g5v0d10v5#body = 1.620000e+00
m.xvco.xm13.msky130_fd_pr__pfet_g5v0d10v5#dbody = 1.620000e+00
m.xvco.xm13.msky130_fd_pr__pfet_g5v0d10v5#sbody = 1.620000e+00
m.xvco.xm14.msky130_fd_pr__pfet_g5v0d10v5#body = 1.620000e+00
m.xvco.xm14.msky130_fd_pr__pfet_g5v0d10v5#dbody = 1.620000e+00
m.xvco.xm14.msky130_fd_pr__pfet_g5v0d10v5#sbody = 1.620000e+00
m.xvco.xm15.msky130_fd_pr__pfet_g5v0d10v5#body = 1.620000e+00
m.xvco.xm15.msky130_fd_pr__pfet_g5v0d10v5#dbody = 1.620000e+00
m.xvco.xm15.msky130_fd_pr__pfet_g5v0d10v5#sbody = 1.620000e+00
m.xvco.xm16.msky130_fd_pr__pfet_g5v0d10v5#body = 1.620000e+00
m.xvco.xm16.msky130_fd_pr__pfet_g5v0d10v5#dbody = 1.620000e+00
m.xvco.xm16.msky130_fd_pr__pfet_g5v0d10v5#sbody = 1.620000e+00
m.xvco.xm17.msky130_fd_pr__pfet_g5v0d10v5#body = 1.620000e+00
m.xvco.xm17.msky130_fd_pr__pfet_g5v0d10v5#dbody = 1.620000e+00
m.xvco.xm17.msky130_fd_pr__pfet_g5v0d10v5#sbody = 1.620000e+00
m.xvco.xm18.msky130_fd_pr__pfet_g5v0d10v5#body = 1.620000e+00
m.xvco.xm18.msky130_fd_pr__pfet_g5v0d10v5#dbody = 1.620000e+00
m.xvco.xm18.msky130_fd_pr__pfet_g5v0d10v5#sbody = 1.620000e+00
m.xvco.xm19.msky130_fd_pr__nfet_g5v0d10v5#body = 1.251756e-11
m.xvco.xm19.msky130_fd_pr__nfet_g5v0d10v5#dbody = 3.129390e-11
m.xvco.xm19.msky130_fd_pr__nfet_g5v0d10v5#sbody = 6.258791e-12
m.xvco.xm20.msky130_fd_pr__nfet_g5v0d10v5#body = 6.896756e-12
m.xvco.xm20.msky130_fd_pr__nfet_g5v0d10v5#dbody = 1.724189e-11
m.xvco.xm20.msky130_fd_pr__nfet_g5v0d10v5#sbody = 3.448379e-12
m.xvco.xm21.msky130_fd_pr__nfet_g5v0d10v5#body = 5.276013e-12
m.xvco.xm21.msky130_fd_pr__nfet_g5v0d10v5#dbody = 1.319003e-11
m.xvco.xm21.msky130_fd_pr__nfet_g5v0d10v5#sbody = 2.638008e-12
m.xvco.xm22.msky130_fd_pr__pfet_g5v0d10v5#body = 1.620000e+00
m.xvco.xm22.msky130_fd_pr__pfet_g5v0d10v5#dbody = 1.620000e+00
m.xvco.xm22.msky130_fd_pr__pfet_g5v0d10v5#sbody = 1.620000e+00
m.xvco.xm23.msky130_fd_pr__nfet_g5v0d10v5#body = 1.187714e-11
m.xvco.xm23.msky130_fd_pr__nfet_g5v0d10v5#dbody = 2.969284e-11
m.xvco.xm23.msky130_fd_pr__nfet_g5v0d10v5#sbody = 5.938574e-12
m.xvco.xm24.msky130_fd_pr__pfet_g5v0d10v5#body = 1.620000e+00
m.xvco.xm24.msky130_fd_pr__pfet_g5v0d10v5#dbody = 1.620000e+00
m.xvco.xm24.msky130_fd_pr__pfet_g5v0d10v5#sbody = 1.620000e+00
out = 9.000000e-01
q.xvco.xq2.qsky130_fd_pr__pnp_05v5_w0p68l0p68#collcx = 3.085677e-12
q.xvco.xq3.qsky130_fd_pr__pnp_05v5_w0p68l0p68#collcx = 3.085677e-12
q.xvco.xq4.qsky130_fd_pr__pnp_05v5_w0p68l0p68#collcx = 3.085677e-12
q.xvco.xq5.qsky130_fd_pr__pnp_05v5_w0p68l0p68#collcx = 3.085677e-12
q.xvco.xq6.qsky130_fd_pr__pnp_05v5_w0p68l0p68#collcx = 3.085677e-12
q.xvco.xq7.qsky130_fd_pr__pnp_05v5_w0p68l0p68#collcx = 3.085677e-12
q.xvco.xq8.qsky130_fd_pr__pnp_05v5_w0p68l0p68#collcx = 3.085677e-12
q.xvco.xq9.qsky130_fd_pr__pnp_05v5_w0p68l0p68#collcx = 3.085677e-12
q.xvco.xq10.qsky130_fd_pr__pnp_05v5_w0p68l0p68#collcx = 5.341776e-12
vdd = 1.620000e+00
vdd#branch = -4.56231e-06
vtuner#branch = 2.495678e-06
xvco.net1 = 8.697119e-01
xvco.net2 = 3.226218e-02
xvco.net3 = 3.226219e-02
xvco.net4 = 2.904120e-01
xvco.net5 = 8.735143e-01
xvco.net6 = 4.200480e-01
xvco.net7 = 8.184781e-01
xvco.vbe = 4.455142e-02
xvco.xr1.xsky130_fd_pr__res_xhigh_po_1p41.ra = 8.200101e-05
xvco.xr3.xsky130_fd_pr__res_xhigh_po_1p41.ra = 1.132269e-04
xvco.xr4.xsky130_fd_pr__res_xhigh_po_1p41.ra = 3.226218e-02
