Warning: m=xx on .subckt line will override multiplier m hierarchy!

 Reference value :  0.00000e+00Note: No ".plot", ".print", or ".fourier" lines; no simulations run

Note: Compatibility modes selected: hs a


Circuit: ** test bench for bgr

option SCALE: Scale is set to 1e-06 for instance and model parameters
Doing analysis at TEMP = -30.000000 and TNOM = -30.000000


No. of Data Rows : 1
iref = 8.392275e+01
iref = 8.392275e+01
m.xvco.xm2.msky130_fd_pr__pfet_g5v0d10v5#body = 1.980000e+00
m.xvco.xm2.msky130_fd_pr__pfet_g5v0d10v5#dbody = 1.980000e+00
m.xvco.xm2.msky130_fd_pr__pfet_g5v0d10v5#sbody = 1.980000e+00
m.xvco.xm13.msky130_fd_pr__pfet_g5v0d10v5#body = 1.980000e+00
m.xvco.xm13.msky130_fd_pr__pfet_g5v0d10v5#dbody = 1.980000e+00
m.xvco.xm13.msky130_fd_pr__pfet_g5v0d10v5#sbody = 1.980000e+00
m.xvco.xm14.msky130_fd_pr__pfet_g5v0d10v5#body = 1.980000e+00
m.xvco.xm14.msky130_fd_pr__pfet_g5v0d10v5#dbody = 1.980000e+00
m.xvco.xm14.msky130_fd_pr__pfet_g5v0d10v5#sbody = 1.980000e+00
m.xvco.xm15.msky130_fd_pr__pfet_g5v0d10v5#body = 1.980000e+00
m.xvco.xm15.msky130_fd_pr__pfet_g5v0d10v5#dbody = 1.980000e+00
m.xvco.xm15.msky130_fd_pr__pfet_g5v0d10v5#sbody = 1.980000e+00
m.xvco.xm16.msky130_fd_pr__pfet_g5v0d10v5#body = 1.980000e+00
m.xvco.xm16.msky130_fd_pr__pfet_g5v0d10v5#dbody = 1.980000e+00
m.xvco.xm16.msky130_fd_pr__pfet_g5v0d10v5#sbody = 1.980000e+00
m.xvco.xm17.msky130_fd_pr__pfet_g5v0d10v5#body = 1.980000e+00
m.xvco.xm17.msky130_fd_pr__pfet_g5v0d10v5#dbody = 1.980000e+00
m.xvco.xm17.msky130_fd_pr__pfet_g5v0d10v5#sbody = 1.980000e+00
m.xvco.xm18.msky130_fd_pr__pfet_g5v0d10v5#body = 1.980000e+00
m.xvco.xm18.msky130_fd_pr__pfet_g5v0d10v5#dbody = 1.980000e+00
m.xvco.xm18.msky130_fd_pr__pfet_g5v0d10v5#sbody = 1.980000e+00
m.xvco.xm19.msky130_fd_pr__nfet_g5v0d10v5#body = 1.035259e-11
m.xvco.xm19.msky130_fd_pr__nfet_g5v0d10v5#dbody = 2.588140e-11
m.xvco.xm19.msky130_fd_pr__nfet_g5v0d10v5#sbody = 5.176364e-12
m.xvco.xm20.msky130_fd_pr__nfet_g5v0d10v5#body = 1.471778e-11
m.xvco.xm20.msky130_fd_pr__nfet_g5v0d10v5#dbody = 3.679444e-11
m.xvco.xm20.msky130_fd_pr__nfet_g5v0d10v5#sbody = 7.358893e-12
m.xvco.xm21.msky130_fd_pr__nfet_g5v0d10v5#body = 1.181897e-11
m.xvco.xm21.msky130_fd_pr__nfet_g5v0d10v5#dbody = 2.954742e-11
m.xvco.xm21.msky130_fd_pr__nfet_g5v0d10v5#sbody = 5.909489e-12
m.xvco.xm22.msky130_fd_pr__pfet_g5v0d10v5#body = 1.980000e+00
m.xvco.xm22.msky130_fd_pr__pfet_g5v0d10v5#dbody = 1.980000e+00
m.xvco.xm22.msky130_fd_pr__pfet_g5v0d10v5#sbody = 1.980000e+00
m.xvco.xm23.msky130_fd_pr__nfet_g5v0d10v5#body = 2.491242e-11
m.xvco.xm23.msky130_fd_pr__nfet_g5v0d10v5#dbody = 6.195586e-11
m.xvco.xm23.msky130_fd_pr__nfet_g5v0d10v5#sbody = 1.245621e-11
m.xvco.xm24.msky130_fd_pr__pfet_g5v0d10v5#body = 1.980000e+00
m.xvco.xm24.msky130_fd_pr__pfet_g5v0d10v5#dbody = 1.980000e+00
m.xvco.xm24.msky130_fd_pr__pfet_g5v0d10v5#sbody = 1.980000e+00
out = 9.000000e-01
q.xvco.xq2.qsky130_fd_pr__pnp_05v5_w0p68l0p68#collcx = 5.400901e-05
q.xvco.xq3.qsky130_fd_pr__pnp_05v5_w0p68l0p68#collcx = 5.400901e-05
q.xvco.xq4.qsky130_fd_pr__pnp_05v5_w0p68l0p68#collcx = 5.400901e-05
q.xvco.xq5.qsky130_fd_pr__pnp_05v5_w0p68l0p68#collcx = 5.400901e-05
q.xvco.xq6.qsky130_fd_pr__pnp_05v5_w0p68l0p68#collcx = 5.400901e-05
q.xvco.xq7.qsky130_fd_pr__pnp_05v5_w0p68l0p68#collcx = 5.400901e-05
q.xvco.xq8.qsky130_fd_pr__pnp_05v5_w0p68l0p68#collcx = 5.400901e-05
q.xvco.xq9.qsky130_fd_pr__pnp_05v5_w0p68l0p68#collcx = 5.400901e-05
q.xvco.xq10.qsky130_fd_pr__pnp_05v5_w0p68l0p68#collcx = 3.731776e-04
vdd = 1.980000e+00
vdd#branch = -1.42982e-04
vtuner#branch = 8.392275e-05
xvco.net1 = 8.282069e-01
xvco.net2 = 7.957460e-01
xvco.net3 = 8.268841e-01
xvco.net4 = 9.455176e-01
xvco.net5 = 1.875701e+00
xvco.net6 = 1.177422e+00
xvco.net7 = 1.979986e+00
xvco.vbe = 8.380983e-01
xvco.xr1.xsky130_fd_pr__res_xhigh_po_1p41.ra = 1.850103e-03
xvco.xr3.xsky130_fd_pr__res_xhigh_po_1p41.ra = 1.876953e-03
xvco.xr4.xsky130_fd_pr__res_xhigh_po_1p41.ra = 7.959776e-01
