Warning: m=xx on .subckt line will override multiplier m hierarchy!

Note: Starting dynamic gmin stepping
Trying gmin =   1.0000E-03 Note: One successful gmin step
Trying gmin =   1.0000E-04 Note: One successful gmin step
Trying gmin =   1.0000E-05 Note: One successful gmin step
Trying gmin =   1.0000E-06 Note: One successful gmin step
Trying gmin =   1.0000E-07 Note: One successful gmin step
Trying gmin =   1.0000E-08 Note: One successful gmin step
Trying gmin =   1.0000E-09 Note: One successful gmin step
Trying gmin =   1.0000E-10 Note: One successful gmin step
Trying gmin =   1.0000E-11 Note: One successful gmin step
Trying gmin =   1.0000E-12 Warning: Further gmin increment
Trying gmin =   5.6234E-12 Warning: Further gmin increment
Trying gmin =   8.6596E-12 Note: One successful gmin step
Trying gmin =   6.9783E-12 Warning: Further gmin increment
Trying gmin =   8.2047E-12 Warning: Further gmin increment
Trying gmin =   8.5436E-12 Note: One successful gmin step
Trying gmin =   8.3724E-12 Note: One successful gmin step
Trying gmin =   8.2881E-12 Warning: Further gmin increment
Trying gmin =   8.3513E-12 Warning: Further gmin increment
Trying gmin =   8.3671E-12 Note: One successful gmin step
Trying gmin =   8.3645E-12 Note: One successful gmin step
Trying gmin =   8.3632E-12 Warning: Further gmin increment
Trying gmin =   8.3642E-12 Warning: Last gmin step failed
Note: Dynamic gmin stepping completed
 Reference value :  0.00000e+00Note: No ".plot", ".print", or ".fourier" lines; no simulations run

Note: Compatibility modes selected: hs a


Circuit: ** test bench for bgr

option SCALE: Scale is set to 1e-06 for instance and model parameters
Doing analysis at TEMP = -10.000000 and TNOM = -10.000000


No. of Data Rows : 1
iref = 8.437827e+01
iref = 8.437827e+01
m.xvco.xm2.msky130_fd_pr__pfet_g5v0d10v5#body = 1.980000e+00
m.xvco.xm2.msky130_fd_pr__pfet_g5v0d10v5#dbody = 1.980000e+00
m.xvco.xm2.msky130_fd_pr__pfet_g5v0d10v5#sbody = 1.980000e+00
m.xvco.xm13.msky130_fd_pr__pfet_g5v0d10v5#body = 1.980000e+00
m.xvco.xm13.msky130_fd_pr__pfet_g5v0d10v5#dbody = 1.980000e+00
m.xvco.xm13.msky130_fd_pr__pfet_g5v0d10v5#sbody = 1.980000e+00
m.xvco.xm14.msky130_fd_pr__pfet_g5v0d10v5#body = 1.980000e+00
m.xvco.xm14.msky130_fd_pr__pfet_g5v0d10v5#dbody = 1.980000e+00
m.xvco.xm14.msky130_fd_pr__pfet_g5v0d10v5#sbody = 1.980000e+00
m.xvco.xm15.msky130_fd_pr__pfet_g5v0d10v5#body = 1.980000e+00
m.xvco.xm15.msky130_fd_pr__pfet_g5v0d10v5#dbody = 1.980000e+00
m.xvco.xm15.msky130_fd_pr__pfet_g5v0d10v5#sbody = 1.980000e+00
m.xvco.xm16.msky130_fd_pr__pfet_g5v0d10v5#body = 1.980000e+00
m.xvco.xm16.msky130_fd_pr__pfet_g5v0d10v5#dbody = 1.980000e+00
m.xvco.xm16.msky130_fd_pr__pfet_g5v0d10v5#sbody = 1.980000e+00
m.xvco.xm17.msky130_fd_pr__pfet_g5v0d10v5#body = 1.980000e+00
m.xvco.xm17.msky130_fd_pr__pfet_g5v0d10v5#dbody = 1.980000e+00
m.xvco.xm17.msky130_fd_pr__pfet_g5v0d10v5#sbody = 1.980000e+00
m.xvco.xm18.msky130_fd_pr__pfet_g5v0d10v5#body = 1.980000e+00
m.xvco.xm18.msky130_fd_pr__pfet_g5v0d10v5#dbody = 1.980000e+00
m.xvco.xm18.msky130_fd_pr__pfet_g5v0d10v5#sbody = 1.980000e+00
m.xvco.xm19.msky130_fd_pr__nfet_g5v0d10v5#body = 1.079977e-11
m.xvco.xm19.msky130_fd_pr__nfet_g5v0d10v5#dbody = 2.699936e-11
m.xvco.xm19.msky130_fd_pr__nfet_g5v0d10v5#sbody = 5.399953e-12
m.xvco.xm20.msky130_fd_pr__nfet_g5v0d10v5#body = 1.454807e-11
m.xvco.xm20.msky130_fd_pr__nfet_g5v0d10v5#dbody = 3.637016e-11
m.xvco.xm20.msky130_fd_pr__nfet_g5v0d10v5#sbody = 7.274038e-12
m.xvco.xm21.msky130_fd_pr__nfet_g5v0d10v5#body = 1.161219e-11
m.xvco.xm21.msky130_fd_pr__nfet_g5v0d10v5#dbody = 2.903047e-11
m.xvco.xm21.msky130_fd_pr__nfet_g5v0d10v5#sbody = 5.806099e-12
m.xvco.xm22.msky130_fd_pr__pfet_g5v0d10v5#body = 1.980000e+00
m.xvco.xm22.msky130_fd_pr__pfet_g5v0d10v5#dbody = 1.980000e+00
m.xvco.xm22.msky130_fd_pr__pfet_g5v0d10v5#sbody = 1.980000e+00
m.xvco.xm23.msky130_fd_pr__nfet_g5v0d10v5#body = 2.530309e-11
m.xvco.xm23.msky130_fd_pr__nfet_g5v0d10v5#dbody = 6.215024e-11
m.xvco.xm23.msky130_fd_pr__nfet_g5v0d10v5#sbody = 1.265155e-11
m.xvco.xm24.msky130_fd_pr__pfet_g5v0d10v5#body = 1.980000e+00
m.xvco.xm24.msky130_fd_pr__pfet_g5v0d10v5#dbody = 1.980000e+00
m.xvco.xm24.msky130_fd_pr__pfet_g5v0d10v5#sbody = 1.980000e+00
out = 9.000000e-01
q.xvco.xq2.qsky130_fd_pr__pnp_05v5_w0p68l0p68#collcx = 6.418096e-05
q.xvco.xq3.qsky130_fd_pr__pnp_05v5_w0p68l0p68#collcx = 6.418096e-05
q.xvco.xq4.qsky130_fd_pr__pnp_05v5_w0p68l0p68#collcx = 6.418096e-05
q.xvco.xq5.qsky130_fd_pr__pnp_05v5_w0p68l0p68#collcx = 6.418096e-05
q.xvco.xq6.qsky130_fd_pr__pnp_05v5_w0p68l0p68#collcx = 6.418096e-05
q.xvco.xq7.qsky130_fd_pr__pnp_05v5_w0p68l0p68#collcx = 6.418096e-05
q.xvco.xq8.qsky130_fd_pr__pnp_05v5_w0p68l0p68#collcx = 6.418096e-05
q.xvco.xq9.qsky130_fd_pr__pnp_05v5_w0p68l0p68#collcx = 6.418096e-05
q.xvco.xq10.qsky130_fd_pr__pnp_05v5_w0p68l0p68#collcx = 4.485800e-04
vdd = 1.980000e+00
vdd#branch = -1.42428e-04
vtuner#branch = 8.437827e-05
xvco.net1 = 8.639814e-01
xvco.net2 = 7.632389e-01
xvco.net3 = 7.979469e-01
xvco.net4 = 9.289749e-01
xvco.net5 = 1.823510e+00
xvco.net6 = 1.163845e+00
xvco.net7 = 1.979948e+00
xvco.vbe = 8.095922e-01
xvco.xr1.xsky130_fd_pr__res_xhigh_po_1p41.ra = 1.838940e-03
xvco.xr3.xsky130_fd_pr__res_xhigh_po_1p41.ra = 1.867596e-03
xvco.xr4.xsky130_fd_pr__res_xhigh_po_1p41.ra = 7.635054e-01
