Warning: m=xx on .subckt line will override multiplier m hierarchy!

Note: Starting dynamic gmin stepping
Trying gmin =   1.0000E-03 Note: One successful gmin step
Trying gmin =   1.0000E-04 Note: One successful gmin step
Trying gmin =   1.0000E-05 Note: One successful gmin step
Trying gmin =   1.0000E-06 Note: One successful gmin step
Trying gmin =   1.0000E-07 Note: One successful gmin step
Trying gmin =   1.0000E-08 Note: One successful gmin step
Trying gmin =   1.0000E-09 Note: One successful gmin step
Trying gmin =   1.0000E-10 Note: One successful gmin step
Trying gmin =   1.0000E-11 Warning: Further gmin increment
Trying gmin =   5.6234E-11 Note: One successful gmin step
Trying gmin =   2.3714E-11 Note: One successful gmin step
Trying gmin =   6.4938E-12 Warning: Further gmin increment
Trying gmin =   1.7154E-11 Note: One successful gmin step
Trying gmin =   1.0554E-11 Warning: Further gmin increment
Trying gmin =   1.5193E-11 Warning: Further gmin increment
Trying gmin =   1.6641E-11 Note: One successful gmin step
Trying gmin =   1.5901E-11 Note: One successful gmin step
Trying gmin =   1.5193E-11 Warning: Further gmin increment
Trying gmin =   1.5721E-11 Warning: Further gmin increment
Trying gmin =   1.5856E-11 Note: One successful gmin step
Trying gmin =   1.5810E-11 Warning: Further gmin increment
Trying gmin =   1.5844E-11 Note: One successful gmin step
Trying gmin =   1.5833E-11 Note: One successful gmin step
Trying gmin =   1.5816E-11 Warning: Further gmin increment
Trying gmin =   1.5829E-11 Note: One successful gmin step
Trying gmin =   1.5827E-11 Warning: Further gmin increment
Trying gmin =   1.5828E-11 Warning: Last gmin step failed
Note: Dynamic gmin stepping completed
 Reference value :  0.00000e+00Note: No ".plot", ".print", or ".fourier" lines; no simulations run

Note: Compatibility modes selected: hs a


Circuit: ** test bench for bgr

option SCALE: Scale is set to 1e-06 for instance and model parameters
Doing analysis at TEMP = 50.000000 and TNOM = 50.000000


No. of Data Rows : 1
iref = 5.974200e+01
iref = 5.974200e+01
m.xvco.xm2.msky130_fd_pr__pfet_g5v0d10v5#body = 1.800000e+00
m.xvco.xm2.msky130_fd_pr__pfet_g5v0d10v5#dbody = 1.800000e+00
m.xvco.xm2.msky130_fd_pr__pfet_g5v0d10v5#sbody = 1.800000e+00
m.xvco.xm13.msky130_fd_pr__pfet_g5v0d10v5#body = 1.800000e+00
m.xvco.xm13.msky130_fd_pr__pfet_g5v0d10v5#dbody = 1.800000e+00
m.xvco.xm13.msky130_fd_pr__pfet_g5v0d10v5#sbody = 1.800000e+00
m.xvco.xm14.msky130_fd_pr__pfet_g5v0d10v5#body = 1.800000e+00
m.xvco.xm14.msky130_fd_pr__pfet_g5v0d10v5#dbody = 1.800000e+00
m.xvco.xm14.msky130_fd_pr__pfet_g5v0d10v5#sbody = 1.800000e+00
m.xvco.xm15.msky130_fd_pr__pfet_g5v0d10v5#body = 1.800000e+00
m.xvco.xm15.msky130_fd_pr__pfet_g5v0d10v5#dbody = 1.800000e+00
m.xvco.xm15.msky130_fd_pr__pfet_g5v0d10v5#sbody = 1.800000e+00
m.xvco.xm16.msky130_fd_pr__pfet_g5v0d10v5#body = 1.800000e+00
m.xvco.xm16.msky130_fd_pr__pfet_g5v0d10v5#dbody = 1.800000e+00
m.xvco.xm16.msky130_fd_pr__pfet_g5v0d10v5#sbody = 1.800000e+00
m.xvco.xm17.msky130_fd_pr__pfet_g5v0d10v5#body = 1.800000e+00
m.xvco.xm17.msky130_fd_pr__pfet_g5v0d10v5#dbody = 1.800000e+00
m.xvco.xm17.msky130_fd_pr__pfet_g5v0d10v5#sbody = 1.800000e+00
m.xvco.xm18.msky130_fd_pr__pfet_g5v0d10v5#body = 1.800000e+00
m.xvco.xm18.msky130_fd_pr__pfet_g5v0d10v5#dbody = 1.800000e+00
m.xvco.xm18.msky130_fd_pr__pfet_g5v0d10v5#sbody = 1.800000e+00
m.xvco.xm19.msky130_fd_pr__nfet_g5v0d10v5#body = 1.015153e-11
m.xvco.xm19.msky130_fd_pr__nfet_g5v0d10v5#dbody = 2.537877e-11
m.xvco.xm19.msky130_fd_pr__nfet_g5v0d10v5#sbody = 5.075815e-12
m.xvco.xm20.msky130_fd_pr__nfet_g5v0d10v5#body = 1.365617e-11
m.xvco.xm20.msky130_fd_pr__nfet_g5v0d10v5#dbody = 3.414043e-11
m.xvco.xm20.msky130_fd_pr__nfet_g5v0d10v5#sbody = 6.828091e-12
m.xvco.xm21.msky130_fd_pr__nfet_g5v0d10v5#body = 1.065431e-11
m.xvco.xm21.msky130_fd_pr__nfet_g5v0d10v5#dbody = 2.663578e-11
m.xvco.xm21.msky130_fd_pr__nfet_g5v0d10v5#sbody = 5.327161e-12
m.xvco.xm22.msky130_fd_pr__pfet_g5v0d10v5#body = 1.800000e+00
m.xvco.xm22.msky130_fd_pr__pfet_g5v0d10v5#dbody = 1.800000e+00
m.xvco.xm22.msky130_fd_pr__pfet_g5v0d10v5#sbody = 1.800000e+00
m.xvco.xm23.msky130_fd_pr__nfet_g5v0d10v5#body = 2.271865e-11
m.xvco.xm23.msky130_fd_pr__nfet_g5v0d10v5#dbody = 5.640129e-11
m.xvco.xm23.msky130_fd_pr__nfet_g5v0d10v5#sbody = 1.135933e-11
m.xvco.xm24.msky130_fd_pr__pfet_g5v0d10v5#body = 1.800000e+00
m.xvco.xm24.msky130_fd_pr__pfet_g5v0d10v5#dbody = 1.800000e+00
m.xvco.xm24.msky130_fd_pr__pfet_g5v0d10v5#sbody = 1.800000e+00
out = 9.000000e-01
q.xvco.xq2.qsky130_fd_pr__pnp_05v5_w0p68l0p68#collcx = 1.366618e-05
q.xvco.xq3.qsky130_fd_pr__pnp_05v5_w0p68l0p68#collcx = 1.366618e-05
q.xvco.xq4.qsky130_fd_pr__pnp_05v5_w0p68l0p68#collcx = 1.366618e-05
q.xvco.xq5.qsky130_fd_pr__pnp_05v5_w0p68l0p68#collcx = 1.366618e-05
q.xvco.xq6.qsky130_fd_pr__pnp_05v5_w0p68l0p68#collcx = 1.366618e-05
q.xvco.xq7.qsky130_fd_pr__pnp_05v5_w0p68l0p68#collcx = 1.366618e-05
q.xvco.xq8.qsky130_fd_pr__pnp_05v5_w0p68l0p68#collcx = 1.366618e-05
q.xvco.xq9.qsky130_fd_pr__pnp_05v5_w0p68l0p68#collcx = 1.366618e-05
q.xvco.xq10.qsky130_fd_pr__pnp_05v5_w0p68l0p68#collcx = 2.746982e-05
vdd = 1.800000e+00
vdd#branch = -1.01853e-04
vtuner#branch = 5.974200e-05
xvco.net1 = 8.105672e-01
xvco.net2 = 6.050718e-01
xvco.net3 = 6.114375e-01
xvco.net4 = 8.507901e-01
xvco.net5 = 1.533286e+00
xvco.net6 = 1.090939e+00
xvco.net7 = 1.800124e+00
xvco.vbe = 6.252441e-01
xvco.xr1.xsky130_fd_pr__res_xhigh_po_1p41.ra = 1.516983e-03
xvco.xr3.xsky130_fd_pr__res_xhigh_po_1p41.ra = 1.552963e-03
xvco.xr4.xsky130_fd_pr__res_xhigh_po_1p41.ra = 6.051252e-01
