Warning: m=xx on .subckt line will override multiplier m hierarchy!

Note: Starting dynamic gmin stepping
Trying gmin =   1.0000E-03 Note: One successful gmin step
Trying gmin =   1.0000E-04 Note: One successful gmin step
Trying gmin =   1.0000E-05 Note: One successful gmin step
Trying gmin =   1.0000E-06 Note: One successful gmin step
Trying gmin =   1.0000E-07 Note: One successful gmin step
Trying gmin =   1.0000E-08 Note: One successful gmin step
Trying gmin =   1.0000E-09 Note: One successful gmin step
Trying gmin =   1.0000E-10 Note: One successful gmin step
Trying gmin =   1.0000E-11 Warning: Further gmin increment
Trying gmin =   5.6234E-11 Note: One successful gmin step
Trying gmin =   2.3714E-11 Note: One successful gmin step
Trying gmin =   6.4938E-12 Warning: Further gmin increment
Trying gmin =   1.7154E-11 Warning: Further gmin increment
Trying gmin =   2.1870E-11 Note: One successful gmin step
Trying gmin =   1.9369E-11 Note: One successful gmin step
Trying gmin =   1.8228E-11 Note: One successful gmin step
Trying gmin =   1.6641E-11 Note: One successful gmin step
Trying gmin =   1.4517E-11 Note: One successful gmin step
Trying gmin =   1.1827E-11 Note: One successful gmin step
Trying gmin =   8.6975E-12 Note: One successful gmin step
Trying gmin =   5.4849E-12 Note: One successful gmin step
Trying gmin =   2.7468E-12 Note: One successful gmin step
Trying gmin =   1.0000E-12 Note: One successful gmin step
Note: Dynamic gmin stepping completed
 Reference value :  0.00000e+00Note: No ".plot", ".print", or ".fourier" lines; no simulations run

Note: Compatibility modes selected: hs a


Circuit: ** test bench for bgr

option SCALE: Scale is set to 1e-06 for instance and model parameters
Doing analysis at TEMP = 60.000000 and TNOM = 60.000000


No. of Data Rows : 1
iref = 8.408814e+01
iref = 8.408814e+01
m.xvco.xm2.msky130_fd_pr__pfet_g5v0d10v5#body = 1.980000e+00
m.xvco.xm2.msky130_fd_pr__pfet_g5v0d10v5#dbody = 1.980000e+00
m.xvco.xm2.msky130_fd_pr__pfet_g5v0d10v5#sbody = 1.980000e+00
m.xvco.xm13.msky130_fd_pr__pfet_g5v0d10v5#body = 1.980000e+00
m.xvco.xm13.msky130_fd_pr__pfet_g5v0d10v5#dbody = 1.980000e+00
m.xvco.xm13.msky130_fd_pr__pfet_g5v0d10v5#sbody = 1.980000e+00
m.xvco.xm14.msky130_fd_pr__pfet_g5v0d10v5#body = 1.980000e+00
m.xvco.xm14.msky130_fd_pr__pfet_g5v0d10v5#dbody = 1.980000e+00
m.xvco.xm14.msky130_fd_pr__pfet_g5v0d10v5#sbody = 1.980000e+00
m.xvco.xm15.msky130_fd_pr__pfet_g5v0d10v5#body = 1.980000e+00
m.xvco.xm15.msky130_fd_pr__pfet_g5v0d10v5#dbody = 1.980000e+00
m.xvco.xm15.msky130_fd_pr__pfet_g5v0d10v5#sbody = 1.980000e+00
m.xvco.xm16.msky130_fd_pr__pfet_g5v0d10v5#body = 1.980000e+00
m.xvco.xm16.msky130_fd_pr__pfet_g5v0d10v5#dbody = 1.980000e+00
m.xvco.xm16.msky130_fd_pr__pfet_g5v0d10v5#sbody = 1.980000e+00
m.xvco.xm17.msky130_fd_pr__pfet_g5v0d10v5#body = 1.980000e+00
m.xvco.xm17.msky130_fd_pr__pfet_g5v0d10v5#dbody = 1.980000e+00
m.xvco.xm17.msky130_fd_pr__pfet_g5v0d10v5#sbody = 1.980000e+00
m.xvco.xm18.msky130_fd_pr__pfet_g5v0d10v5#body = 1.980000e+00
m.xvco.xm18.msky130_fd_pr__pfet_g5v0d10v5#dbody = 1.980000e+00
m.xvco.xm18.msky130_fd_pr__pfet_g5v0d10v5#sbody = 1.980000e+00
m.xvco.xm19.msky130_fd_pr__nfet_g5v0d10v5#body = 1.241459e-11
m.xvco.xm19.msky130_fd_pr__nfet_g5v0d10v5#dbody = 3.103640e-11
m.xvco.xm19.msky130_fd_pr__nfet_g5v0d10v5#sbody = 6.207365e-12
m.xvco.xm20.msky130_fd_pr__nfet_g5v0d10v5#body = 1.398801e-11
m.xvco.xm20.msky130_fd_pr__nfet_g5v0d10v5#dbody = 3.497002e-11
m.xvco.xm20.msky130_fd_pr__nfet_g5v0d10v5#sbody = 6.994011e-12
m.xvco.xm21.msky130_fd_pr__nfet_g5v0d10v5#body = 1.081333e-11
m.xvco.xm21.msky130_fd_pr__nfet_g5v0d10v5#dbody = 2.703333e-11
m.xvco.xm21.msky130_fd_pr__nfet_g5v0d10v5#sbody = 5.406672e-12
m.xvco.xm22.msky130_fd_pr__pfet_g5v0d10v5#body = 1.980000e+00
m.xvco.xm22.msky130_fd_pr__pfet_g5v0d10v5#dbody = 1.980000e+00
m.xvco.xm22.msky130_fd_pr__pfet_g5v0d10v5#sbody = 1.980000e+00
m.xvco.xm23.msky130_fd_pr__nfet_g5v0d10v5#body = 2.819307e-11
m.xvco.xm23.msky130_fd_pr__nfet_g5v0d10v5#dbody = 6.370998e-11
m.xvco.xm23.msky130_fd_pr__nfet_g5v0d10v5#sbody = 1.409653e-11
m.xvco.xm24.msky130_fd_pr__pfet_g5v0d10v5#body = 1.980000e+00
m.xvco.xm24.msky130_fd_pr__pfet_g5v0d10v5#dbody = 1.980000e+00
m.xvco.xm24.msky130_fd_pr__pfet_g5v0d10v5#sbody = 1.980000e+00
out = 9.000000e-01
q.xvco.xq2.qsky130_fd_pr__pnp_05v5_w0p68l0p68#collcx = 1.011752e-04
q.xvco.xq3.qsky130_fd_pr__pnp_05v5_w0p68l0p68#collcx = 1.011752e-04
q.xvco.xq4.qsky130_fd_pr__pnp_05v5_w0p68l0p68#collcx = 1.011752e-04
q.xvco.xq5.qsky130_fd_pr__pnp_05v5_w0p68l0p68#collcx = 1.011752e-04
q.xvco.xq6.qsky130_fd_pr__pnp_05v5_w0p68l0p68#collcx = 1.011752e-04
q.xvco.xq7.qsky130_fd_pr__pnp_05v5_w0p68l0p68#collcx = 1.011752e-04
q.xvco.xq8.qsky130_fd_pr__pnp_05v5_w0p68l0p68#collcx = 1.011752e-04
q.xvco.xq9.qsky130_fd_pr__pnp_05v5_w0p68l0p68#collcx = 1.011752e-04
q.xvco.xq10.qsky130_fd_pr__pnp_05v5_w0p68l0p68#collcx = 7.187003e-04
vdd = 1.980000e+00
vdd#branch = -1.38567e-04
vtuner#branch = 8.408814e-05
xvco.net1 = 9.878847e-01
xvco.net2 = 6.439901e-01
xvco.net3 = 6.900173e-01
xvco.net4 = 8.597846e-01
xvco.net5 = 1.627227e+00
xvco.net6 = 1.113759e+00
xvco.net7 = 1.979256e+00
xvco.vbe = 7.039791e-01
xvco.xr1.xsky130_fd_pr__res_xhigh_po_1p41.ra = 1.746695e-03
xvco.xr3.xsky130_fd_pr__res_xhigh_po_1p41.ra = 1.784097e-03
xvco.xr4.xsky130_fd_pr__res_xhigh_po_1p41.ra = 6.443816e-01
