Warning: m=xx on .subckt line will override multiplier m hierarchy!

Note: Starting dynamic gmin stepping
Trying gmin =   1.0000E-03 Note: One successful gmin step
Trying gmin =   1.0000E-04 Note: One successful gmin step
Trying gmin =   1.0000E-05 Note: One successful gmin step
Trying gmin =   1.0000E-06 Note: One successful gmin step
Trying gmin =   1.0000E-07 Note: One successful gmin step
Trying gmin =   1.0000E-08 Note: One successful gmin step
Trying gmin =   1.0000E-09 Note: One successful gmin step
Trying gmin =   1.0000E-10 Note: One successful gmin step
Trying gmin =   1.0000E-11 Warning: Further gmin increment
Trying gmin =   5.6234E-11 Note: One successful gmin step
Trying gmin =   2.3714E-11 Note: One successful gmin step
Trying gmin =   6.4938E-12 Warning: Further gmin increment
Trying gmin =   1.7154E-11 Warning: Further gmin increment
Trying gmin =   2.1870E-11 Note: One successful gmin step
Trying gmin =   2.0169E-11 Warning: Further gmin increment
Trying gmin =   2.1432E-11 Warning: Further gmin increment
Trying gmin =   2.1759E-11 Warning: Further gmin increment
Trying gmin =   2.1842E-11 Note: One successful gmin step
Trying gmin =   2.1814E-11 Note: One successful gmin step
Trying gmin =   2.1773E-11 Note: One successful gmin step
Trying gmin =   2.1711E-11 Warning: Further gmin increment
Trying gmin =   2.1758E-11 Warning: Further gmin increment
Trying gmin =   2.1769E-11 Warning: Further gmin increment
Trying gmin =   2.1772E-11 Note: One successful gmin step
Trying gmin =   2.1771E-11 Note: One successful gmin step
Trying gmin =   2.1770E-11 Note: One successful gmin step
Trying gmin =   2.1769E-11 Warning: Last gmin step failed
Note: Dynamic gmin stepping completed
 Reference value :  0.00000e+00Note: No ".plot", ".print", or ".fourier" lines; no simulations run

Note: Compatibility modes selected: hs a


Circuit: ** test bench for bgr

option SCALE: Scale is set to 1e-06 for instance and model parameters
Doing analysis at TEMP = 70.000000 and TNOM = 70.000000


No. of Data Rows : 1
iref = 5.696981e+01
iref = 5.696981e+01
m.xvco.xm2.msky130_fd_pr__pfet_g5v0d10v5#body = 1.800000e+00
m.xvco.xm2.msky130_fd_pr__pfet_g5v0d10v5#dbody = 1.800000e+00
m.xvco.xm2.msky130_fd_pr__pfet_g5v0d10v5#sbody = 1.800000e+00
m.xvco.xm13.msky130_fd_pr__pfet_g5v0d10v5#body = 1.800000e+00
m.xvco.xm13.msky130_fd_pr__pfet_g5v0d10v5#dbody = 1.800000e+00
m.xvco.xm13.msky130_fd_pr__pfet_g5v0d10v5#sbody = 1.800000e+00
m.xvco.xm14.msky130_fd_pr__pfet_g5v0d10v5#body = 1.800000e+00
m.xvco.xm14.msky130_fd_pr__pfet_g5v0d10v5#dbody = 1.800000e+00
m.xvco.xm14.msky130_fd_pr__pfet_g5v0d10v5#sbody = 1.800000e+00
m.xvco.xm15.msky130_fd_pr__pfet_g5v0d10v5#body = 1.800000e+00
m.xvco.xm15.msky130_fd_pr__pfet_g5v0d10v5#dbody = 1.800000e+00
m.xvco.xm15.msky130_fd_pr__pfet_g5v0d10v5#sbody = 1.800000e+00
m.xvco.xm16.msky130_fd_pr__pfet_g5v0d10v5#body = 1.800000e+00
m.xvco.xm16.msky130_fd_pr__pfet_g5v0d10v5#dbody = 1.800000e+00
m.xvco.xm16.msky130_fd_pr__pfet_g5v0d10v5#sbody = 1.800000e+00
m.xvco.xm17.msky130_fd_pr__pfet_g5v0d10v5#body = 1.800000e+00
m.xvco.xm17.msky130_fd_pr__pfet_g5v0d10v5#dbody = 1.800000e+00
m.xvco.xm17.msky130_fd_pr__pfet_g5v0d10v5#sbody = 1.800000e+00
m.xvco.xm18.msky130_fd_pr__pfet_g5v0d10v5#body = 1.800000e+00
m.xvco.xm18.msky130_fd_pr__pfet_g5v0d10v5#dbody = 1.800000e+00
m.xvco.xm18.msky130_fd_pr__pfet_g5v0d10v5#sbody = 1.800000e+00
m.xvco.xm19.msky130_fd_pr__nfet_g5v0d10v5#body = 1.082992e-11
m.xvco.xm19.msky130_fd_pr__nfet_g5v0d10v5#dbody = 2.707473e-11
m.xvco.xm19.msky130_fd_pr__nfet_g5v0d10v5#sbody = 5.415027e-12
m.xvco.xm20.msky130_fd_pr__nfet_g5v0d10v5#body = 1.356047e-11
m.xvco.xm20.msky130_fd_pr__nfet_g5v0d10v5#dbody = 3.390116e-11
m.xvco.xm20.msky130_fd_pr__nfet_g5v0d10v5#sbody = 6.780239e-12
m.xvco.xm21.msky130_fd_pr__nfet_g5v0d10v5#body = 1.054895e-11
m.xvco.xm21.msky130_fd_pr__nfet_g5v0d10v5#dbody = 2.637237e-11
m.xvco.xm21.msky130_fd_pr__nfet_g5v0d10v5#sbody = 5.274480e-12
m.xvco.xm22.msky130_fd_pr__pfet_g5v0d10v5#body = 1.800000e+00
m.xvco.xm22.msky130_fd_pr__pfet_g5v0d10v5#dbody = 1.800000e+00
m.xvco.xm22.msky130_fd_pr__pfet_g5v0d10v5#sbody = 1.800000e+00
m.xvco.xm23.msky130_fd_pr__nfet_g5v0d10v5#body = 2.306876e-11
m.xvco.xm23.msky130_fd_pr__nfet_g5v0d10v5#dbody = 5.694609e-11
m.xvco.xm23.msky130_fd_pr__nfet_g5v0d10v5#sbody = 1.153438e-11
m.xvco.xm24.msky130_fd_pr__pfet_g5v0d10v5#body = 1.800000e+00
m.xvco.xm24.msky130_fd_pr__pfet_g5v0d10v5#dbody = 1.800000e+00
m.xvco.xm24.msky130_fd_pr__pfet_g5v0d10v5#sbody = 1.800000e+00
out = 9.000000e-01
q.xvco.xq2.qsky130_fd_pr__pnp_05v5_w0p68l0p68#collcx = 1.450746e-05
q.xvco.xq3.qsky130_fd_pr__pnp_05v5_w0p68l0p68#collcx = 1.450746e-05
q.xvco.xq4.qsky130_fd_pr__pnp_05v5_w0p68l0p68#collcx = 1.450746e-05
q.xvco.xq5.qsky130_fd_pr__pnp_05v5_w0p68l0p68#collcx = 1.450746e-05
q.xvco.xq6.qsky130_fd_pr__pnp_05v5_w0p68l0p68#collcx = 1.450746e-05
q.xvco.xq7.qsky130_fd_pr__pnp_05v5_w0p68l0p68#collcx = 1.450746e-05
q.xvco.xq8.qsky130_fd_pr__pnp_05v5_w0p68l0p68#collcx = 1.450746e-05
q.xvco.xq9.qsky130_fd_pr__pnp_05v5_w0p68l0p68#collcx = 1.450746e-05
q.xvco.xq10.qsky130_fd_pr__pnp_05v5_w0p68l0p68#collcx = 2.859805e-05
vdd = 1.800000e+00
vdd#branch = -9.66355e-05
vtuner#branch = 5.696981e-05
xvco.net1 = 8.496449e-01
xvco.net2 = 5.653285e-01
xvco.net3 = 5.718114e-01
xvco.net4 = 8.271681e-01
xvco.net5 = 1.468032e+00
xvco.net6 = 1.068090e+00
xvco.net7 = 1.799721e+00
xvco.vbe = 5.861787e-01
xvco.xr1.xsky130_fd_pr__res_xhigh_po_1p41.ra = 1.452905e-03
xvco.xr3.xsky130_fd_pr__res_xhigh_po_1p41.ra = 1.491099e-03
xvco.xr4.xsky130_fd_pr__res_xhigh_po_1p41.ra = 5.653844e-01
