Warning: m=xx on .subckt line will override multiplier m hierarchy!

Note: Starting dynamic gmin stepping
Trying gmin =   1.0000E-03 Note: One successful gmin step
Trying gmin =   1.0000E-04 Note: One successful gmin step
Trying gmin =   1.0000E-05 Note: One successful gmin step
Trying gmin =   1.0000E-06 Note: One successful gmin step
Trying gmin =   1.0000E-07 Note: One successful gmin step
Trying gmin =   1.0000E-08 Note: One successful gmin step
Trying gmin =   1.0000E-09 Note: One successful gmin step
Trying gmin =   1.0000E-10 Note: One successful gmin step
Trying gmin =   1.0000E-11 Warning: Further gmin increment
Trying gmin =   5.6234E-11 Note: One successful gmin step
Trying gmin =   2.3714E-11 Warning: Further gmin increment
Trying gmin =   4.5316E-11 Note: One successful gmin step
Trying gmin =   3.2781E-11 Note: One successful gmin step
Trying gmin =   2.0169E-11 Warning: Further gmin increment
Trying gmin =   2.9033E-11 Note: One successful gmin step
Trying gmin =   2.4199E-11 Warning: Further gmin increment
Trying gmin =   2.7741E-11 Note: One successful gmin step
Trying gmin =   2.5909E-11 Warning: Further gmin increment
Trying gmin =   2.7271E-11 Warning: Further gmin increment
Trying gmin =   2.7622E-11 Warning: Further gmin increment
Trying gmin =   2.7711E-11 Note: One successful gmin step
Trying gmin =   2.7681E-11 Note: One successful gmin step
Trying gmin =   2.7652E-11 Warning: Further gmin increment
Trying gmin =   2.7674E-11 Note: One successful gmin step
Trying gmin =   2.7663E-11 Note: One successful gmin step
Trying gmin =   2.7646E-11 Warning: Further gmin increment
Trying gmin =   2.7659E-11 Note: One successful gmin step
Trying gmin =   2.7653E-11 Warning: Further gmin increment
Trying gmin =   2.7657E-11 Note: One successful gmin step
Trying gmin =   2.7656E-11 Note: One successful gmin step
Trying gmin =   2.7653E-11 Warning: Further gmin increment
Trying gmin =   2.7655E-11 Note: One successful gmin step
Trying gmin =   2.7655E-11 Note: One successful gmin step
Trying gmin =   2.7654E-11 Note: One successful gmin step
Trying gmin =   2.7652E-11 Warning: Further gmin increment
Trying gmin =   2.7653E-11 Note: One successful gmin step
Trying gmin =   2.7653E-11 Warning: Last gmin step failed
Note: Dynamic gmin stepping completed
 Reference value :  0.00000e+00Note: No ".plot", ".print", or ".fourier" lines; no simulations run

Note: Compatibility modes selected: hs a


Circuit: ** test bench for bgr

option SCALE: Scale is set to 1e-06 for instance and model parameters
Doing analysis at TEMP = 90.000000 and TNOM = 90.000000


No. of Data Rows : 1
iref = 7.896725e+01
iref = 7.896725e+01
m.xvco.xm2.msky130_fd_pr__pfet_g5v0d10v5#body = 1.620000e+00
m.xvco.xm2.msky130_fd_pr__pfet_g5v0d10v5#dbody = 1.620000e+00
m.xvco.xm2.msky130_fd_pr__pfet_g5v0d10v5#sbody = 1.620000e+00
m.xvco.xm13.msky130_fd_pr__pfet_g5v0d10v5#body = 1.620000e+00
m.xvco.xm13.msky130_fd_pr__pfet_g5v0d10v5#dbody = 1.620000e+00
m.xvco.xm13.msky130_fd_pr__pfet_g5v0d10v5#sbody = 1.620000e+00
m.xvco.xm14.msky130_fd_pr__pfet_g5v0d10v5#body = 1.620000e+00
m.xvco.xm14.msky130_fd_pr__pfet_g5v0d10v5#dbody = 1.620000e+00
m.xvco.xm14.msky130_fd_pr__pfet_g5v0d10v5#sbody = 1.620000e+00
m.xvco.xm15.msky130_fd_pr__pfet_g5v0d10v5#body = 1.620000e+00
m.xvco.xm15.msky130_fd_pr__pfet_g5v0d10v5#dbody = 1.620000e+00
m.xvco.xm15.msky130_fd_pr__pfet_g5v0d10v5#sbody = 1.620000e+00
m.xvco.xm16.msky130_fd_pr__pfet_g5v0d10v5#body = 1.620000e+00
m.xvco.xm16.msky130_fd_pr__pfet_g5v0d10v5#dbody = 1.620000e+00
m.xvco.xm16.msky130_fd_pr__pfet_g5v0d10v5#sbody = 1.620000e+00
m.xvco.xm17.msky130_fd_pr__pfet_g5v0d10v5#body = 1.620000e+00
m.xvco.xm17.msky130_fd_pr__pfet_g5v0d10v5#dbody = 1.620000e+00
m.xvco.xm17.msky130_fd_pr__pfet_g5v0d10v5#sbody = 1.620000e+00
m.xvco.xm18.msky130_fd_pr__pfet_g5v0d10v5#body = 1.620000e+00
m.xvco.xm18.msky130_fd_pr__pfet_g5v0d10v5#dbody = 1.620000e+00
m.xvco.xm18.msky130_fd_pr__pfet_g5v0d10v5#sbody = 1.620000e+00
m.xvco.xm19.msky130_fd_pr__nfet_g5v0d10v5#body = 1.019617e-11
m.xvco.xm19.msky130_fd_pr__nfet_g5v0d10v5#dbody = 2.549012e-11
m.xvco.xm19.msky130_fd_pr__nfet_g5v0d10v5#sbody = 5.098394e-12
m.xvco.xm20.msky130_fd_pr__nfet_g5v0d10v5#body = 1.577943e-11
m.xvco.xm20.msky130_fd_pr__nfet_g5v0d10v5#dbody = 3.944854e-11
m.xvco.xm20.msky130_fd_pr__nfet_g5v0d10v5#sbody = 7.889739e-12
m.xvco.xm21.msky130_fd_pr__nfet_g5v0d10v5#body = 1.200844e-11
m.xvco.xm21.msky130_fd_pr__nfet_g5v0d10v5#dbody = 3.002109e-11
m.xvco.xm21.msky130_fd_pr__nfet_g5v0d10v5#sbody = 6.004245e-12
m.xvco.xm22.msky130_fd_pr__pfet_g5v0d10v5#body = 1.620000e+00
m.xvco.xm22.msky130_fd_pr__pfet_g5v0d10v5#dbody = 1.620000e+00
m.xvco.xm22.msky130_fd_pr__pfet_g5v0d10v5#sbody = 1.620000e+00
m.xvco.xm23.msky130_fd_pr__nfet_g5v0d10v5#body = 2.201372e-11
m.xvco.xm23.msky130_fd_pr__nfet_g5v0d10v5#dbody = 5.500822e-11
m.xvco.xm23.msky130_fd_pr__nfet_g5v0d10v5#sbody = 1.100686e-11
m.xvco.xm24.msky130_fd_pr__pfet_g5v0d10v5#body = 1.620000e+00
m.xvco.xm24.msky130_fd_pr__pfet_g5v0d10v5#dbody = 1.620000e+00
m.xvco.xm24.msky130_fd_pr__pfet_g5v0d10v5#sbody = 1.620000e+00
out = 9.000000e-01
q.xvco.xq2.qsky130_fd_pr__pnp_05v5_w0p68l0p68#collcx = 1.048378e-04
q.xvco.xq3.qsky130_fd_pr__pnp_05v5_w0p68l0p68#collcx = 1.048378e-04
q.xvco.xq4.qsky130_fd_pr__pnp_05v5_w0p68l0p68#collcx = 1.048378e-04
q.xvco.xq5.qsky130_fd_pr__pnp_05v5_w0p68l0p68#collcx = 1.048378e-04
q.xvco.xq6.qsky130_fd_pr__pnp_05v5_w0p68l0p68#collcx = 1.048378e-04
q.xvco.xq7.qsky130_fd_pr__pnp_05v5_w0p68l0p68#collcx = 1.048378e-04
q.xvco.xq8.qsky130_fd_pr__pnp_05v5_w0p68l0p68#collcx = 1.048378e-04
q.xvco.xq9.qsky130_fd_pr__pnp_05v5_w0p68l0p68#collcx = 1.048378e-04
q.xvco.xq10.qsky130_fd_pr__pnp_05v5_w0p68l0p68#collcx = 7.103671e-04
vdd = 1.620000e+00
vdd#branch = -1.32874e-04
vtuner#branch = 7.896725e-05
xvco.net1 = 6.756045e-01
xvco.net2 = 5.872576e-01
xvco.net3 = 6.323244e-01
xvco.net4 = 8.205955e-01
xvco.net5 = 1.452909e+00
xvco.net6 = 1.122274e+00
xvco.net7 = 1.619975e+00
xvco.vbe = 6.511445e-01
xvco.xr1.xsky130_fd_pr__res_xhigh_po_1p41.ra = 1.655972e-03
xvco.xr3.xsky130_fd_pr__res_xhigh_po_1p41.ra = 1.707872e-03
xvco.xr4.xsky130_fd_pr__res_xhigh_po_1p41.ra = 5.876560e-01
