Warning: m=xx on .subckt line will override multiplier m hierarchy!

Note: Starting dynamic gmin stepping
Trying gmin =   1.0000E-03 Note: One successful gmin step
Trying gmin =   1.0000E-04 Note: One successful gmin step
Trying gmin =   1.0000E-05 Note: One successful gmin step
Trying gmin =   1.0000E-06 Note: One successful gmin step
Trying gmin =   1.0000E-07 Note: One successful gmin step
Trying gmin =   1.0000E-08 Note: One successful gmin step
Trying gmin =   1.0000E-09 Note: One successful gmin step
Trying gmin =   1.0000E-10 Note: One successful gmin step
Trying gmin =   1.0000E-11 Note: One successful gmin step
Trying gmin =   1.0000E-12 Warning: Further gmin increment
Trying gmin =   5.6234E-12 Warning: Further gmin increment
Trying gmin =   8.6596E-12 Warning: Further gmin increment
Trying gmin =   9.6466E-12 Note: One successful gmin step
Trying gmin =   9.1398E-12 Warning: Further gmin increment
Trying gmin =   9.5173E-12 Note: One successful gmin step
Trying gmin =   9.3267E-12 Warning: Further gmin increment
Trying gmin =   9.4693E-12 Warning: Further gmin increment
Trying gmin =   9.5053E-12 Note: One successful gmin step
Trying gmin =   9.4873E-12 Warning: Further gmin increment
Trying gmin =   9.5008E-12 Note: One successful gmin step
Trying gmin =   9.4940E-12 Note: One successful gmin step
Trying gmin =   9.4839E-12 Warning: Further gmin increment
Trying gmin =   9.4915E-12 Warning: Further gmin increment
Trying gmin =   9.4934E-12 Note: One successful gmin step
Trying gmin =   9.4925E-12 Warning: Further gmin increment
Trying gmin =   9.4932E-12 Note: One successful gmin step
Trying gmin =   9.4928E-12 Warning: Last gmin step failed
Note: Dynamic gmin stepping completed
 Reference value :  0.00000e+00Note: No ".plot", ".print", or ".fourier" lines; no simulations run

Note: Compatibility modes selected: hs a


Circuit: ** test bench for bgr

option SCALE: Scale is set to 1e-06 for instance and model parameters
Doing analysis at TEMP = -20.000000 and TNOM = -20.000000


No. of Data Rows : 1
iref = 2.484424e+00
iref = 2.484424e+00
m.xvco.xm2.msky130_fd_pr__pfet_g5v0d10v5#body = 1.800000e+00
m.xvco.xm2.msky130_fd_pr__pfet_g5v0d10v5#dbody = 1.800000e+00
m.xvco.xm2.msky130_fd_pr__pfet_g5v0d10v5#sbody = 1.800000e+00
m.xvco.xm13.msky130_fd_pr__pfet_g5v0d10v5#body = 1.800000e+00
m.xvco.xm13.msky130_fd_pr__pfet_g5v0d10v5#dbody = 1.800000e+00
m.xvco.xm13.msky130_fd_pr__pfet_g5v0d10v5#sbody = 1.800000e+00
m.xvco.xm14.msky130_fd_pr__pfet_g5v0d10v5#body = 1.800000e+00
m.xvco.xm14.msky130_fd_pr__pfet_g5v0d10v5#dbody = 1.800000e+00
m.xvco.xm14.msky130_fd_pr__pfet_g5v0d10v5#sbody = 1.800000e+00
m.xvco.xm15.msky130_fd_pr__pfet_g5v0d10v5#body = 1.800000e+00
m.xvco.xm15.msky130_fd_pr__pfet_g5v0d10v5#dbody = 1.800000e+00
m.xvco.xm15.msky130_fd_pr__pfet_g5v0d10v5#sbody = 1.800000e+00
m.xvco.xm16.msky130_fd_pr__pfet_g5v0d10v5#body = 1.800000e+00
m.xvco.xm16.msky130_fd_pr__pfet_g5v0d10v5#dbody = 1.800000e+00
m.xvco.xm16.msky130_fd_pr__pfet_g5v0d10v5#sbody = 1.800000e+00
m.xvco.xm17.msky130_fd_pr__pfet_g5v0d10v5#body = 1.800000e+00
m.xvco.xm17.msky130_fd_pr__pfet_g5v0d10v5#dbody = 1.800000e+00
m.xvco.xm17.msky130_fd_pr__pfet_g5v0d10v5#sbody = 1.800000e+00
m.xvco.xm18.msky130_fd_pr__pfet_g5v0d10v5#body = 1.800000e+00
m.xvco.xm18.msky130_fd_pr__pfet_g5v0d10v5#dbody = 1.800000e+00
m.xvco.xm18.msky130_fd_pr__pfet_g5v0d10v5#sbody = 1.800000e+00
m.xvco.xm19.msky130_fd_pr__nfet_g5v0d10v5#body = 1.148705e-11
m.xvco.xm19.msky130_fd_pr__nfet_g5v0d10v5#dbody = 2.871761e-11
m.xvco.xm19.msky130_fd_pr__nfet_g5v0d10v5#sbody = 5.743528e-12
m.xvco.xm20.msky130_fd_pr__nfet_g5v0d10v5#body = 1.004490e-11
m.xvco.xm20.msky130_fd_pr__nfet_g5v0d10v5#dbody = 2.511226e-11
m.xvco.xm20.msky130_fd_pr__nfet_g5v0d10v5#sbody = 5.022452e-12
m.xvco.xm21.msky130_fd_pr__nfet_g5v0d10v5#body = 8.635274e-12
m.xvco.xm21.msky130_fd_pr__nfet_g5v0d10v5#dbody = 2.158818e-11
m.xvco.xm21.msky130_fd_pr__nfet_g5v0d10v5#sbody = 4.317637e-12
m.xvco.xm22.msky130_fd_pr__pfet_g5v0d10v5#body = 1.800000e+00
m.xvco.xm22.msky130_fd_pr__pfet_g5v0d10v5#dbody = 1.800000e+00
m.xvco.xm22.msky130_fd_pr__pfet_g5v0d10v5#sbody = 1.800000e+00
m.xvco.xm23.msky130_fd_pr__nfet_g5v0d10v5#body = 1.062653e-11
m.xvco.xm23.msky130_fd_pr__nfet_g5v0d10v5#dbody = 2.656632e-11
m.xvco.xm23.msky130_fd_pr__nfet_g5v0d10v5#sbody = 5.313264e-12
m.xvco.xm24.msky130_fd_pr__pfet_g5v0d10v5#body = 1.800000e+00
m.xvco.xm24.msky130_fd_pr__pfet_g5v0d10v5#dbody = 1.800000e+00
m.xvco.xm24.msky130_fd_pr__pfet_g5v0d10v5#sbody = 1.800000e+00
out = 9.000000e-01
q.xvco.xq2.qsky130_fd_pr__pnp_05v5_w0p68l0p68#collcx = 3.613247e-19
q.xvco.xq3.qsky130_fd_pr__pnp_05v5_w0p68l0p68#collcx = 3.613247e-19
q.xvco.xq4.qsky130_fd_pr__pnp_05v5_w0p68l0p68#collcx = 3.613247e-19
q.xvco.xq5.qsky130_fd_pr__pnp_05v5_w0p68l0p68#collcx = 3.613247e-19
q.xvco.xq6.qsky130_fd_pr__pnp_05v5_w0p68l0p68#collcx = 3.613247e-19
q.xvco.xq7.qsky130_fd_pr__pnp_05v5_w0p68l0p68#collcx = 3.613247e-19
q.xvco.xq8.qsky130_fd_pr__pnp_05v5_w0p68l0p68#collcx = 3.613247e-19
q.xvco.xq9.qsky130_fd_pr__pnp_05v5_w0p68l0p68#collcx = 3.613247e-19
q.xvco.xq10.qsky130_fd_pr__pnp_05v5_w0p68l0p68#collcx = 5.252292e-19
vdd = 1.800000e+00
vdd#branch = -5.86538e-06
vtuner#branch = 2.484424e-06
xvco.net1 = 9.189638e-01
xvco.net2 = 4.052274e-02
xvco.net3 = 4.052275e-02
xvco.net4 = 6.908219e-01
xvco.net5 = 1.062869e+00
xvco.net6 = 8.035923e-01
xvco.net7 = 8.501222e-01
xvco.vbe = 4.782539e-02
xvco.xr1.xsky130_fd_pr__res_xhigh_po_1p41.ra = 8.798746e-05
xvco.xr3.xsky130_fd_pr__res_xhigh_po_1p41.ra = 1.038398e-04
xvco.xr4.xsky130_fd_pr__res_xhigh_po_1p41.ra = 4.052274e-02
