Warning: m=xx on .subckt line will override multiplier m hierarchy!

Note: Starting dynamic gmin stepping
Trying gmin =   1.0000E-03 Note: One successful gmin step
Trying gmin =   1.0000E-04 Note: One successful gmin step
Trying gmin =   1.0000E-05 Note: One successful gmin step
Trying gmin =   1.0000E-06 Note: One successful gmin step
Trying gmin =   1.0000E-07 Note: One successful gmin step
Trying gmin =   1.0000E-08 Note: One successful gmin step
Trying gmin =   1.0000E-09 Note: One successful gmin step
Trying gmin =   1.0000E-10 Note: One successful gmin step
Trying gmin =   1.0000E-11 Note: One successful gmin step
Trying gmin =   1.0000E-12 Warning: Further gmin increment
Trying gmin =   5.6234E-12 Warning: Further gmin increment
Trying gmin =   8.6596E-12 Warning: Further gmin increment
Trying gmin =   9.6466E-12 Warning: Further gmin increment
Trying gmin =   9.9105E-12 Note: One successful gmin step
Trying gmin =   9.7776E-12 Warning: Further gmin increment
Trying gmin =   9.8771E-12 Note: One successful gmin step
Trying gmin =   9.8272E-12 Note: One successful gmin step
Trying gmin =   9.8024E-12 Warning: Further gmin increment
Trying gmin =   9.8210E-12 Note: One successful gmin step
Trying gmin =   9.8148E-12 Note: One successful gmin step
Trying gmin =   9.8117E-12 Note: One successful gmin step
Trying gmin =   9.8086E-12 Warning: Further gmin increment
Trying gmin =   9.8109E-12 Warning: Further gmin increment
Trying gmin =   9.8115E-12 Warning: Last gmin step failed
Warning: Dynamic gmin stepping failed
Note: Starting true gmin stepping
Trying gmin =   1.0000E-03 Note: One successful gmin step
Trying gmin =   1.0000E-04 Note: One successful gmin step
Trying gmin =   1.0000E-05 Note: One successful gmin step
Trying gmin =   1.0000E-06 Note: One successful gmin step
Trying gmin =   1.0000E-07 Note: One successful gmin step
Trying gmin =   1.0000E-08 Note: One successful gmin step
Trying gmin =   1.0000E-09 Note: One successful gmin step
Trying gmin =   1.0000E-10 Note: One successful gmin step
Trying gmin =   1.0000E-11 Note: One successful gmin step
Trying gmin =   1.0000E-12 Note: One successful gmin step
Trying gmin =   1.0000E-12 Note: One successful gmin step
Note: True gmin stepping completed
 Reference value :  0.00000e+00Note: No ".plot", ".print", or ".fourier" lines; no simulations run

Note: Compatibility modes selected: hs a


Circuit: ** test bench for bgr

option SCALE: Scale is set to 1e-06 for instance and model parameters
Doing analysis at TEMP = -30.000000 and TNOM = -30.000000


No. of Data Rows : 1
iref = 8.358846e+01
iref = 8.358846e+01
m.xvco.xm2.msky130_fd_pr__pfet_g5v0d10v5#body = 1.980000e+00
m.xvco.xm2.msky130_fd_pr__pfet_g5v0d10v5#dbody = 1.980000e+00
m.xvco.xm2.msky130_fd_pr__pfet_g5v0d10v5#sbody = 1.980000e+00
m.xvco.xm13.msky130_fd_pr__pfet_g5v0d10v5#body = 1.980000e+00
m.xvco.xm13.msky130_fd_pr__pfet_g5v0d10v5#dbody = 1.980000e+00
m.xvco.xm13.msky130_fd_pr__pfet_g5v0d10v5#sbody = 1.980000e+00
m.xvco.xm14.msky130_fd_pr__pfet_g5v0d10v5#body = 1.980000e+00
m.xvco.xm14.msky130_fd_pr__pfet_g5v0d10v5#dbody = 1.980000e+00
m.xvco.xm14.msky130_fd_pr__pfet_g5v0d10v5#sbody = 1.980000e+00
m.xvco.xm15.msky130_fd_pr__pfet_g5v0d10v5#body = 1.980000e+00
m.xvco.xm15.msky130_fd_pr__pfet_g5v0d10v5#dbody = 1.980000e+00
m.xvco.xm15.msky130_fd_pr__pfet_g5v0d10v5#sbody = 1.980000e+00
m.xvco.xm16.msky130_fd_pr__pfet_g5v0d10v5#body = 1.980000e+00
m.xvco.xm16.msky130_fd_pr__pfet_g5v0d10v5#dbody = 1.980000e+00
m.xvco.xm16.msky130_fd_pr__pfet_g5v0d10v5#sbody = 1.980000e+00
m.xvco.xm17.msky130_fd_pr__pfet_g5v0d10v5#body = 1.980000e+00
m.xvco.xm17.msky130_fd_pr__pfet_g5v0d10v5#dbody = 1.980000e+00
m.xvco.xm17.msky130_fd_pr__pfet_g5v0d10v5#sbody = 1.980000e+00
m.xvco.xm18.msky130_fd_pr__pfet_g5v0d10v5#body = 1.980000e+00
m.xvco.xm18.msky130_fd_pr__pfet_g5v0d10v5#dbody = 1.980000e+00
m.xvco.xm18.msky130_fd_pr__pfet_g5v0d10v5#sbody = 1.980000e+00
m.xvco.xm19.msky130_fd_pr__nfet_g5v0d10v5#body = 1.133445e-11
m.xvco.xm19.msky130_fd_pr__nfet_g5v0d10v5#dbody = 2.833602e-11
m.xvco.xm19.msky130_fd_pr__nfet_g5v0d10v5#sbody = 5.667312e-12
m.xvco.xm20.msky130_fd_pr__nfet_g5v0d10v5#body = 1.311272e-11
m.xvco.xm20.msky130_fd_pr__nfet_g5v0d10v5#dbody = 3.278180e-11
m.xvco.xm20.msky130_fd_pr__nfet_g5v0d10v5#sbody = 6.556368e-12
m.xvco.xm21.msky130_fd_pr__nfet_g5v0d10v5#body = 1.047365e-11
m.xvco.xm21.msky130_fd_pr__nfet_g5v0d10v5#dbody = 2.618412e-11
m.xvco.xm21.msky130_fd_pr__nfet_g5v0d10v5#sbody = 5.236831e-12
m.xvco.xm22.msky130_fd_pr__pfet_g5v0d10v5#body = 1.980000e+00
m.xvco.xm22.msky130_fd_pr__pfet_g5v0d10v5#dbody = 1.980000e+00
m.xvco.xm22.msky130_fd_pr__pfet_g5v0d10v5#sbody = 1.980000e+00
m.xvco.xm23.msky130_fd_pr__nfet_g5v0d10v5#body = 2.673248e-11
m.xvco.xm23.msky130_fd_pr__nfet_g5v0d10v5#dbody = 6.285804e-11
m.xvco.xm23.msky130_fd_pr__nfet_g5v0d10v5#sbody = 1.336624e-11
m.xvco.xm24.msky130_fd_pr__pfet_g5v0d10v5#body = 1.980000e+00
m.xvco.xm24.msky130_fd_pr__pfet_g5v0d10v5#dbody = 1.980000e+00
m.xvco.xm24.msky130_fd_pr__pfet_g5v0d10v5#sbody = 1.980000e+00
out = 9.000000e-01
q.xvco.xq2.qsky130_fd_pr__pnp_05v5_w0p68l0p68#collcx = 6.014691e-05
q.xvco.xq3.qsky130_fd_pr__pnp_05v5_w0p68l0p68#collcx = 6.014691e-05
q.xvco.xq4.qsky130_fd_pr__pnp_05v5_w0p68l0p68#collcx = 6.014691e-05
q.xvco.xq5.qsky130_fd_pr__pnp_05v5_w0p68l0p68#collcx = 6.014691e-05
q.xvco.xq6.qsky130_fd_pr__pnp_05v5_w0p68l0p68#collcx = 6.014691e-05
q.xvco.xq7.qsky130_fd_pr__pnp_05v5_w0p68l0p68#collcx = 6.014691e-05
q.xvco.xq8.qsky130_fd_pr__pnp_05v5_w0p68l0p68#collcx = 6.014691e-05
q.xvco.xq9.qsky130_fd_pr__pnp_05v5_w0p68l0p68#collcx = 6.014691e-05
q.xvco.xq10.qsky130_fd_pr__pnp_05v5_w0p68l0p68#collcx = 4.184688e-04
vdd = 1.980000e+00
vdd#branch = -1.54655e-04
vtuner#branch = 8.358846e-05
xvco.net1 = 9.067553e-01
xvco.net2 = 7.922727e-01
xvco.net3 = 8.239762e-01
xvco.net4 = 8.378920e-01
xvco.net5 = 1.817049e+00
xvco.net6 = 1.049018e+00
xvco.net7 = 1.979672e+00
xvco.vbe = 8.348076e-01
xvco.xr1.xsky130_fd_pr__res_xhigh_po_1p41.ra = 1.843149e-03
xvco.xr3.xsky130_fd_pr__res_xhigh_po_1p41.ra = 1.869069e-03
xvco.xr4.xsky130_fd_pr__res_xhigh_po_1p41.ra = 7.925086e-01
