Warning: m=xx on .subckt line will override multiplier m hierarchy!

 Reference value :  0.00000e+00Note: No ".plot", ".print", or ".fourier" lines; no simulations run

Note: Compatibility modes selected: hs a


Circuit: ** test bench for bgr

option SCALE: Scale is set to 1e-06 for instance and model parameters
Doing analysis at TEMP = -10.000000 and TNOM = -10.000000


No. of Data Rows : 1
iref = 8.202676e+01
iref = 8.202676e+01
m.xvco.xm2.msky130_fd_pr__pfet_g5v0d10v5#body = 1.800000e+00
m.xvco.xm2.msky130_fd_pr__pfet_g5v0d10v5#dbody = 1.800000e+00
m.xvco.xm2.msky130_fd_pr__pfet_g5v0d10v5#sbody = 1.800000e+00
m.xvco.xm13.msky130_fd_pr__pfet_g5v0d10v5#body = 1.800000e+00
m.xvco.xm13.msky130_fd_pr__pfet_g5v0d10v5#dbody = 1.800000e+00
m.xvco.xm13.msky130_fd_pr__pfet_g5v0d10v5#sbody = 1.800000e+00
m.xvco.xm14.msky130_fd_pr__pfet_g5v0d10v5#body = 1.800000e+00
m.xvco.xm14.msky130_fd_pr__pfet_g5v0d10v5#dbody = 1.800000e+00
m.xvco.xm14.msky130_fd_pr__pfet_g5v0d10v5#sbody = 1.800000e+00
m.xvco.xm15.msky130_fd_pr__pfet_g5v0d10v5#body = 1.800000e+00
m.xvco.xm15.msky130_fd_pr__pfet_g5v0d10v5#dbody = 1.800000e+00
m.xvco.xm15.msky130_fd_pr__pfet_g5v0d10v5#sbody = 1.800000e+00
m.xvco.xm16.msky130_fd_pr__pfet_g5v0d10v5#body = 1.800000e+00
m.xvco.xm16.msky130_fd_pr__pfet_g5v0d10v5#dbody = 1.800000e+00
m.xvco.xm16.msky130_fd_pr__pfet_g5v0d10v5#sbody = 1.800000e+00
m.xvco.xm17.msky130_fd_pr__pfet_g5v0d10v5#body = 1.800000e+00
m.xvco.xm17.msky130_fd_pr__pfet_g5v0d10v5#dbody = 1.800000e+00
m.xvco.xm17.msky130_fd_pr__pfet_g5v0d10v5#sbody = 1.800000e+00
m.xvco.xm18.msky130_fd_pr__pfet_g5v0d10v5#body = 1.800000e+00
m.xvco.xm18.msky130_fd_pr__pfet_g5v0d10v5#dbody = 1.800000e+00
m.xvco.xm18.msky130_fd_pr__pfet_g5v0d10v5#sbody = 1.800000e+00
m.xvco.xm19.msky130_fd_pr__nfet_g5v0d10v5#body = 9.502201e-12
m.xvco.xm19.msky130_fd_pr__nfet_g5v0d10v5#dbody = 2.375541e-11
m.xvco.xm19.msky130_fd_pr__nfet_g5v0d10v5#sbody = 4.751187e-12
m.xvco.xm20.msky130_fd_pr__nfet_g5v0d10v5#body = 1.307077e-11
m.xvco.xm20.msky130_fd_pr__nfet_g5v0d10v5#dbody = 3.267691e-11
m.xvco.xm20.msky130_fd_pr__nfet_g5v0d10v5#sbody = 6.535388e-12
m.xvco.xm21.msky130_fd_pr__nfet_g5v0d10v5#body = 1.004529e-11
m.xvco.xm21.msky130_fd_pr__nfet_g5v0d10v5#dbody = 2.511323e-11
m.xvco.xm21.msky130_fd_pr__nfet_g5v0d10v5#sbody = 5.022652e-12
m.xvco.xm22.msky130_fd_pr__pfet_g5v0d10v5#body = 1.800000e+00
m.xvco.xm22.msky130_fd_pr__pfet_g5v0d10v5#dbody = 1.800000e+00
m.xvco.xm22.msky130_fd_pr__pfet_g5v0d10v5#sbody = 1.800000e+00
m.xvco.xm23.msky130_fd_pr__nfet_g5v0d10v5#body = 2.256913e-11
m.xvco.xm23.msky130_fd_pr__nfet_g5v0d10v5#dbody = 5.628376e-11
m.xvco.xm23.msky130_fd_pr__nfet_g5v0d10v5#sbody = 1.128457e-11
m.xvco.xm24.msky130_fd_pr__pfet_g5v0d10v5#body = 1.800000e+00
m.xvco.xm24.msky130_fd_pr__pfet_g5v0d10v5#dbody = 1.800000e+00
m.xvco.xm24.msky130_fd_pr__pfet_g5v0d10v5#sbody = 1.800000e+00
out = 9.000000e-01
q.xvco.xq2.qsky130_fd_pr__pnp_05v5_w0p68l0p68#collcx = 6.411424e-05
q.xvco.xq3.qsky130_fd_pr__pnp_05v5_w0p68l0p68#collcx = 6.411424e-05
q.xvco.xq4.qsky130_fd_pr__pnp_05v5_w0p68l0p68#collcx = 6.411424e-05
q.xvco.xq5.qsky130_fd_pr__pnp_05v5_w0p68l0p68#collcx = 6.411424e-05
q.xvco.xq6.qsky130_fd_pr__pnp_05v5_w0p68l0p68#collcx = 6.411424e-05
q.xvco.xq7.qsky130_fd_pr__pnp_05v5_w0p68l0p68#collcx = 6.411424e-05
q.xvco.xq8.qsky130_fd_pr__pnp_05v5_w0p68l0p68#collcx = 6.411424e-05
q.xvco.xq9.qsky130_fd_pr__pnp_05v5_w0p68l0p68#collcx = 6.411424e-05
q.xvco.xq10.qsky130_fd_pr__pnp_05v5_w0p68l0p68#collcx = 4.318826e-04
vdd = 1.800000e+00
vdd#branch = -1.51435e-04
vtuner#branch = 8.202676e-05
xvco.net1 = 7.601755e-01
xvco.net2 = 7.569082e-01
xvco.net3 = 7.890376e-01
xvco.net4 = 8.036234e-01
xvco.net5 = 1.711650e+00
xvco.net6 = 1.045661e+00
xvco.net7 = 1.799968e+00
xvco.vbe = 8.023095e-01
xvco.xr1.xsky130_fd_pr__res_xhigh_po_1p41.ra = 1.817053e-03
xvco.xr3.xsky130_fd_pr__res_xhigh_po_1p41.ra = 1.849669e-03
xvco.xr4.xsky130_fd_pr__res_xhigh_po_1p41.ra = 7.571549e-01
