Warning: m=xx on .subckt line will override multiplier m hierarchy!

Note: Starting dynamic gmin stepping
Trying gmin =   1.0000E-03 Note: One successful gmin step
Trying gmin =   1.0000E-04 Note: One successful gmin step
Trying gmin =   1.0000E-05 Note: One successful gmin step
Trying gmin =   1.0000E-06 Note: One successful gmin step
Trying gmin =   1.0000E-07 Note: One successful gmin step
Trying gmin =   1.0000E-08 Note: One successful gmin step
Trying gmin =   1.0000E-09 Note: One successful gmin step
Trying gmin =   1.0000E-10 Note: One successful gmin step
Trying gmin =   1.0000E-11 Warning: Further gmin increment
Trying gmin =   5.6234E-11 Note: One successful gmin step
Trying gmin =   2.3714E-11 Note: One successful gmin step
Trying gmin =   6.4938E-12 Warning: Further gmin increment
Trying gmin =   1.7154E-11 Note: One successful gmin step
Trying gmin =   1.0554E-11 Warning: Further gmin increment
Trying gmin =   1.5193E-11 Note: One successful gmin step
Trying gmin =   1.2663E-11 Warning: Further gmin increment
Trying gmin =   1.4517E-11 Warning: Further gmin increment
Trying gmin =   1.5021E-11 Note: One successful gmin step
Trying gmin =   1.4767E-11 Warning: Further gmin increment
Trying gmin =   1.4957E-11 Note: One successful gmin step
Trying gmin =   1.4893E-11 Warning: Further gmin increment
Trying gmin =   1.4941E-11 Warning: Further gmin increment
Trying gmin =   1.4953E-11 Note: One successful gmin step
Trying gmin =   1.4947E-11 Warning: Further gmin increment
Trying gmin =   1.4951E-11 Note: One successful gmin step
Trying gmin =   1.4949E-11 Warning: Further gmin increment
Trying gmin =   1.4951E-11 Note: One successful gmin step
Trying gmin =   1.4950E-11 Note: One successful gmin step
Trying gmin =   1.4950E-11 Warning: Last gmin step failed
Note: Dynamic gmin stepping completed
 Reference value :  0.00000e+00Note: No ".plot", ".print", or ".fourier" lines; no simulations run

Note: Compatibility modes selected: hs a


Circuit: ** test bench for bgr

option SCALE: Scale is set to 1e-06 for instance and model parameters
Doing analysis at TEMP = 0.000000 and TNOM = 0.000000


No. of Data Rows : 1
iref = 6.433381e+01
iref = 6.433381e+01
m.xvco.xm2.msky130_fd_pr__pfet_g5v0d10v5#body = 1.980000e+00
m.xvco.xm2.msky130_fd_pr__pfet_g5v0d10v5#dbody = 1.980000e+00
m.xvco.xm2.msky130_fd_pr__pfet_g5v0d10v5#sbody = 1.980000e+00
m.xvco.xm13.msky130_fd_pr__pfet_g5v0d10v5#body = 1.980000e+00
m.xvco.xm13.msky130_fd_pr__pfet_g5v0d10v5#dbody = 1.980000e+00
m.xvco.xm13.msky130_fd_pr__pfet_g5v0d10v5#sbody = 1.980000e+00
m.xvco.xm14.msky130_fd_pr__pfet_g5v0d10v5#body = 1.980000e+00
m.xvco.xm14.msky130_fd_pr__pfet_g5v0d10v5#dbody = 1.980000e+00
m.xvco.xm14.msky130_fd_pr__pfet_g5v0d10v5#sbody = 1.980000e+00
m.xvco.xm15.msky130_fd_pr__pfet_g5v0d10v5#body = 1.980000e+00
m.xvco.xm15.msky130_fd_pr__pfet_g5v0d10v5#dbody = 1.980000e+00
m.xvco.xm15.msky130_fd_pr__pfet_g5v0d10v5#sbody = 1.980000e+00
m.xvco.xm16.msky130_fd_pr__pfet_g5v0d10v5#body = 1.980000e+00
m.xvco.xm16.msky130_fd_pr__pfet_g5v0d10v5#dbody = 1.980000e+00
m.xvco.xm16.msky130_fd_pr__pfet_g5v0d10v5#sbody = 1.980000e+00
m.xvco.xm17.msky130_fd_pr__pfet_g5v0d10v5#body = 1.980000e+00
m.xvco.xm17.msky130_fd_pr__pfet_g5v0d10v5#dbody = 1.980000e+00
m.xvco.xm17.msky130_fd_pr__pfet_g5v0d10v5#sbody = 1.980000e+00
m.xvco.xm18.msky130_fd_pr__pfet_g5v0d10v5#body = 1.980000e+00
m.xvco.xm18.msky130_fd_pr__pfet_g5v0d10v5#dbody = 1.980000e+00
m.xvco.xm18.msky130_fd_pr__pfet_g5v0d10v5#sbody = 1.980000e+00
m.xvco.xm19.msky130_fd_pr__nfet_g5v0d10v5#body = 1.222648e-11
m.xvco.xm19.msky130_fd_pr__nfet_g5v0d10v5#dbody = 3.056612e-11
m.xvco.xm19.msky130_fd_pr__nfet_g5v0d10v5#sbody = 6.113305e-12
m.xvco.xm20.msky130_fd_pr__nfet_g5v0d10v5#body = 1.242198e-11
m.xvco.xm20.msky130_fd_pr__nfet_g5v0d10v5#dbody = 3.105495e-11
m.xvco.xm20.msky130_fd_pr__nfet_g5v0d10v5#sbody = 6.210997e-12
m.xvco.xm21.msky130_fd_pr__nfet_g5v0d10v5#body = 9.957108e-12
m.xvco.xm21.msky130_fd_pr__nfet_g5v0d10v5#dbody = 2.489276e-11
m.xvco.xm21.msky130_fd_pr__nfet_g5v0d10v5#sbody = 4.978559e-12
m.xvco.xm22.msky130_fd_pr__pfet_g5v0d10v5#body = 1.980000e+00
m.xvco.xm22.msky130_fd_pr__pfet_g5v0d10v5#dbody = 1.980000e+00
m.xvco.xm22.msky130_fd_pr__pfet_g5v0d10v5#sbody = 1.980000e+00
m.xvco.xm23.msky130_fd_pr__nfet_g5v0d10v5#body = 2.949737e-11
m.xvco.xm23.msky130_fd_pr__nfet_g5v0d10v5#dbody = 6.420658e-11
m.xvco.xm23.msky130_fd_pr__nfet_g5v0d10v5#sbody = 1.474869e-11
m.xvco.xm24.msky130_fd_pr__pfet_g5v0d10v5#body = 1.980000e+00
m.xvco.xm24.msky130_fd_pr__pfet_g5v0d10v5#dbody = 1.980000e+00
m.xvco.xm24.msky130_fd_pr__pfet_g5v0d10v5#sbody = 1.980000e+00
out = 9.000000e-01
q.xvco.xq2.qsky130_fd_pr__pnp_05v5_w0p68l0p68#collcx = 1.046269e-05
q.xvco.xq3.qsky130_fd_pr__pnp_05v5_w0p68l0p68#collcx = 1.046269e-05
q.xvco.xq4.qsky130_fd_pr__pnp_05v5_w0p68l0p68#collcx = 1.046269e-05
q.xvco.xq5.qsky130_fd_pr__pnp_05v5_w0p68l0p68#collcx = 1.046269e-05
q.xvco.xq6.qsky130_fd_pr__pnp_05v5_w0p68l0p68#collcx = 1.046269e-05
q.xvco.xq7.qsky130_fd_pr__pnp_05v5_w0p68l0p68#collcx = 1.046269e-05
q.xvco.xq8.qsky130_fd_pr__pnp_05v5_w0p68l0p68#collcx = 1.046269e-05
q.xvco.xq9.qsky130_fd_pr__pnp_05v5_w0p68l0p68#collcx = 1.046269e-05
q.xvco.xq10.qsky130_fd_pr__pnp_05v5_w0p68l0p68#collcx = 2.017443e-05
vdd = 1.980000e+00
vdd#branch = -1.18616e-04
vtuner#branch = 6.433381e-05
xvco.net1 = 9.781170e-01
xvco.net2 = 6.939958e-01
xvco.net3 = 6.991493e-01
xvco.net4 = 7.965677e-01
xvco.net5 = 1.663893e+00
xvco.net6 = 9.937576e-01
xvco.net7 = 1.978315e+00
xvco.vbe = 7.100173e-01
xvco.xr1.xsky130_fd_pr__res_xhigh_po_1p41.ra = 1.623177e-03
xvco.xr3.xsky130_fd_pr__res_xhigh_po_1p41.ra = 1.649894e-03
xvco.xr4.xsky130_fd_pr__res_xhigh_po_1p41.ra = 6.940360e-01
