Warning: m=xx on .subckt line will override multiplier m hierarchy!

Note: Starting dynamic gmin stepping
Trying gmin =   1.0000E-03 Note: One successful gmin step
Trying gmin =   1.0000E-04 Note: One successful gmin step
Trying gmin =   1.0000E-05 Note: One successful gmin step
Trying gmin =   1.0000E-06 Note: One successful gmin step
Trying gmin =   1.0000E-07 Note: One successful gmin step
Trying gmin =   1.0000E-08 Note: One successful gmin step
Trying gmin =   1.0000E-09 Note: One successful gmin step
Trying gmin =   1.0000E-10 Warning: Further gmin increment
Trying gmin =   5.6234E-10 Note: One successful gmin step
Trying gmin =   2.3714E-10 Note: One successful gmin step
Trying gmin =   6.4938E-11 Note: One successful gmin step
Trying gmin =   3.3982E-11 Note: One successful gmin step
Trying gmin =   1.2864E-11 Note: One successful gmin step
Trying gmin =   2.9961E-12 Note: One successful gmin step
Trying gmin =   1.0000E-12 Note: One successful gmin step
Note: Dynamic gmin stepping completed
 Reference value :  0.00000e+00Note: No ".plot", ".print", or ".fourier" lines; no simulations run

Note: Compatibility modes selected: hs a


Circuit: ** test bench for bgr

option SCALE: Scale is set to 1e-06 for instance and model parameters
Doing analysis at TEMP = 100.000000 and TNOM = 100.000000


No. of Data Rows : 1
iref = 8.050749e+01
iref = 8.050749e+01
m.xvco.xm2.msky130_fd_pr__pfet_g5v0d10v5#body = 1.800000e+00
m.xvco.xm2.msky130_fd_pr__pfet_g5v0d10v5#dbody = 1.800000e+00
m.xvco.xm2.msky130_fd_pr__pfet_g5v0d10v5#sbody = 1.800000e+00
m.xvco.xm13.msky130_fd_pr__pfet_g5v0d10v5#body = 1.800000e+00
m.xvco.xm13.msky130_fd_pr__pfet_g5v0d10v5#dbody = 1.800000e+00
m.xvco.xm13.msky130_fd_pr__pfet_g5v0d10v5#sbody = 1.800000e+00
m.xvco.xm14.msky130_fd_pr__pfet_g5v0d10v5#body = 1.800000e+00
m.xvco.xm14.msky130_fd_pr__pfet_g5v0d10v5#dbody = 1.800000e+00
m.xvco.xm14.msky130_fd_pr__pfet_g5v0d10v5#sbody = 1.800000e+00
m.xvco.xm15.msky130_fd_pr__pfet_g5v0d10v5#body = 1.800000e+00
m.xvco.xm15.msky130_fd_pr__pfet_g5v0d10v5#dbody = 1.800000e+00
m.xvco.xm15.msky130_fd_pr__pfet_g5v0d10v5#sbody = 1.800000e+00
m.xvco.xm16.msky130_fd_pr__pfet_g5v0d10v5#body = 1.800000e+00
m.xvco.xm16.msky130_fd_pr__pfet_g5v0d10v5#dbody = 1.800000e+00
m.xvco.xm16.msky130_fd_pr__pfet_g5v0d10v5#sbody = 1.800000e+00
m.xvco.xm17.msky130_fd_pr__pfet_g5v0d10v5#body = 1.800000e+00
m.xvco.xm17.msky130_fd_pr__pfet_g5v0d10v5#dbody = 1.800000e+00
m.xvco.xm17.msky130_fd_pr__pfet_g5v0d10v5#sbody = 1.800000e+00
m.xvco.xm18.msky130_fd_pr__pfet_g5v0d10v5#body = 1.800000e+00
m.xvco.xm18.msky130_fd_pr__pfet_g5v0d10v5#dbody = 1.800000e+00
m.xvco.xm18.msky130_fd_pr__pfet_g5v0d10v5#sbody = 1.800000e+00
m.xvco.xm19.msky130_fd_pr__nfet_g5v0d10v5#body = 1.651184e-11
m.xvco.xm19.msky130_fd_pr__nfet_g5v0d10v5#dbody = 4.127884e-11
m.xvco.xm19.msky130_fd_pr__nfet_g5v0d10v5#sbody = 8.256679e-12
m.xvco.xm20.msky130_fd_pr__nfet_g5v0d10v5#body = 1.633633e-11
m.xvco.xm20.msky130_fd_pr__nfet_g5v0d10v5#dbody = 4.084076e-11
m.xvco.xm20.msky130_fd_pr__nfet_g5v0d10v5#sbody = 8.168243e-12
m.xvco.xm21.msky130_fd_pr__nfet_g5v0d10v5#body = 1.323484e-11
m.xvco.xm21.msky130_fd_pr__nfet_g5v0d10v5#dbody = 3.308703e-11
m.xvco.xm21.msky130_fd_pr__nfet_g5v0d10v5#sbody = 6.617487e-12
m.xvco.xm22.msky130_fd_pr__pfet_g5v0d10v5#body = 1.800000e+00
m.xvco.xm22.msky130_fd_pr__pfet_g5v0d10v5#dbody = 1.800000e+00
m.xvco.xm22.msky130_fd_pr__pfet_g5v0d10v5#sbody = 1.800000e+00
m.xvco.xm23.msky130_fd_pr__nfet_g5v0d10v5#body = 2.781914e-11
m.xvco.xm23.msky130_fd_pr__nfet_g5v0d10v5#dbody = 6.796627e-11
m.xvco.xm23.msky130_fd_pr__nfet_g5v0d10v5#sbody = 1.390958e-11
m.xvco.xm24.msky130_fd_pr__pfet_g5v0d10v5#body = 1.800000e+00
m.xvco.xm24.msky130_fd_pr__pfet_g5v0d10v5#dbody = 1.800000e+00
m.xvco.xm24.msky130_fd_pr__pfet_g5v0d10v5#sbody = 1.800000e+00
out = 9.000000e-01
q.xvco.xq2.qsky130_fd_pr__pnp_05v5_w0p68l0p68#collcx = 1.267186e-04
q.xvco.xq3.qsky130_fd_pr__pnp_05v5_w0p68l0p68#collcx = 1.267186e-04
q.xvco.xq4.qsky130_fd_pr__pnp_05v5_w0p68l0p68#collcx = 1.267186e-04
q.xvco.xq5.qsky130_fd_pr__pnp_05v5_w0p68l0p68#collcx = 1.267186e-04
q.xvco.xq6.qsky130_fd_pr__pnp_05v5_w0p68l0p68#collcx = 1.267186e-04
q.xvco.xq7.qsky130_fd_pr__pnp_05v5_w0p68l0p68#collcx = 1.267186e-04
q.xvco.xq8.qsky130_fd_pr__pnp_05v5_w0p68l0p68#collcx = 1.267186e-04
q.xvco.xq9.qsky130_fd_pr__pnp_05v5_w0p68l0p68#collcx = 1.267186e-04
q.xvco.xq10.qsky130_fd_pr__pnp_05v5_w0p68l0p68#collcx = 8.992876e-04
vdd = 1.800000e+00
vdd#branch = -1.39144e-04
vtuner#branch = 8.050749e-05
xvco.net1 = 9.569776e-01
xvco.net2 = 5.652096e-01
xvco.net3 = 6.168752e-01
xvco.net4 = 6.948428e-01
xvco.net5 = 1.400799e+00
xvco.net6 = 9.429619e-01
xvco.net7 = 1.798326e+00
xvco.vbe = 6.328845e-01
xvco.xr1.xsky130_fd_pr__res_xhigh_po_1p41.ra = 1.633063e-03
xvco.xr3.xsky130_fd_pr__res_xhigh_po_1p41.ra = 1.677613e-03
xvco.xr4.xsky130_fd_pr__res_xhigh_po_1p41.ra = 5.656717e-01
