Warning: m=xx on .subckt line will override multiplier m hierarchy!

Note: Starting dynamic gmin stepping
Trying gmin =   1.0000E-03 Note: One successful gmin step
Trying gmin =   1.0000E-04 Note: One successful gmin step
Trying gmin =   1.0000E-05 Note: One successful gmin step
Trying gmin =   1.0000E-06 Note: One successful gmin step
Trying gmin =   1.0000E-07 Note: One successful gmin step
Trying gmin =   1.0000E-08 Note: One successful gmin step
Trying gmin =   1.0000E-09 Note: One successful gmin step
Trying gmin =   1.0000E-10 Note: One successful gmin step
Trying gmin =   1.0000E-11 Warning: Further gmin increment
Trying gmin =   5.6234E-11 Warning: Further gmin increment
Trying gmin =   8.6596E-11 Note: One successful gmin step
Trying gmin =   6.9783E-11 Note: One successful gmin step
Trying gmin =   5.0481E-11 Warning: Further gmin increment
Trying gmin =   6.4357E-11 Warning: Further gmin increment
Trying gmin =   6.8385E-11 Warning: Further gmin increment
Trying gmin =   6.9431E-11 Note: One successful gmin step
Trying gmin =   6.8906E-11 Note: One successful gmin step
Trying gmin =   6.8126E-11 Warning: Further gmin increment
Trying gmin =   6.8710E-11 Warning: Further gmin increment
Trying gmin =   6.8857E-11 Note: One successful gmin step
Trying gmin =   6.8784E-11 Note: One successful gmin step
Trying gmin =   6.8673E-11 Warning: Further gmin increment
Trying gmin =   6.8756E-11 Note: One successful gmin step
Trying gmin =   6.8715E-11 Warning: Further gmin increment
Trying gmin =   6.8746E-11 Note: One successful gmin step
Trying gmin =   6.8730E-11 Note: One successful gmin step
Trying gmin =   6.8707E-11 Note: One successful gmin step
Trying gmin =   6.8684E-11 Warning: Further gmin increment
Trying gmin =   6.8701E-11 Warning: Further gmin increment
Trying gmin =   6.8706E-11 Warning: Last gmin step failed
Note: Dynamic gmin stepping completed
 Reference value :  0.00000e+00Note: No ".plot", ".print", or ".fourier" lines; no simulations run

Note: Compatibility modes selected: hs a


Circuit: ** test bench for bgr

option SCALE: Scale is set to 1e-06 for instance and model parameters
Doing analysis at TEMP = 80.000000 and TNOM = 80.000000


No. of Data Rows : 1
iref = 8.130110e+01
iref = 8.130110e+01
m.xvco.xm2.msky130_fd_pr__pfet_g5v0d10v5#body = 1.800000e+00
m.xvco.xm2.msky130_fd_pr__pfet_g5v0d10v5#dbody = 1.800000e+00
m.xvco.xm2.msky130_fd_pr__pfet_g5v0d10v5#sbody = 1.800000e+00
m.xvco.xm13.msky130_fd_pr__pfet_g5v0d10v5#body = 1.800000e+00
m.xvco.xm13.msky130_fd_pr__pfet_g5v0d10v5#dbody = 1.800000e+00
m.xvco.xm13.msky130_fd_pr__pfet_g5v0d10v5#sbody = 1.800000e+00
m.xvco.xm14.msky130_fd_pr__pfet_g5v0d10v5#body = 1.800000e+00
m.xvco.xm14.msky130_fd_pr__pfet_g5v0d10v5#dbody = 1.800000e+00
m.xvco.xm14.msky130_fd_pr__pfet_g5v0d10v5#sbody = 1.800000e+00
m.xvco.xm15.msky130_fd_pr__pfet_g5v0d10v5#body = 1.800000e+00
m.xvco.xm15.msky130_fd_pr__pfet_g5v0d10v5#dbody = 1.800000e+00
m.xvco.xm15.msky130_fd_pr__pfet_g5v0d10v5#sbody = 1.800000e+00
m.xvco.xm16.msky130_fd_pr__pfet_g5v0d10v5#body = 1.800000e+00
m.xvco.xm16.msky130_fd_pr__pfet_g5v0d10v5#dbody = 1.800000e+00
m.xvco.xm16.msky130_fd_pr__pfet_g5v0d10v5#sbody = 1.800000e+00
m.xvco.xm17.msky130_fd_pr__pfet_g5v0d10v5#body = 1.800000e+00
m.xvco.xm17.msky130_fd_pr__pfet_g5v0d10v5#dbody = 1.800000e+00
m.xvco.xm17.msky130_fd_pr__pfet_g5v0d10v5#sbody = 1.800000e+00
m.xvco.xm18.msky130_fd_pr__pfet_g5v0d10v5#body = 1.800000e+00
m.xvco.xm18.msky130_fd_pr__pfet_g5v0d10v5#dbody = 1.800000e+00
m.xvco.xm18.msky130_fd_pr__pfet_g5v0d10v5#sbody = 1.800000e+00
m.xvco.xm19.msky130_fd_pr__nfet_g5v0d10v5#body = 1.212265e-11
m.xvco.xm19.msky130_fd_pr__nfet_g5v0d10v5#dbody = 3.030645e-11
m.xvco.xm19.msky130_fd_pr__nfet_g5v0d10v5#sbody = 6.061499e-12
m.xvco.xm20.msky130_fd_pr__nfet_g5v0d10v5#body = 1.264456e-11
m.xvco.xm20.msky130_fd_pr__nfet_g5v0d10v5#dbody = 3.161138e-11
m.xvco.xm20.msky130_fd_pr__nfet_g5v0d10v5#sbody = 6.322296e-12
m.xvco.xm21.msky130_fd_pr__nfet_g5v0d10v5#body = 9.568686e-12
m.xvco.xm21.msky130_fd_pr__nfet_g5v0d10v5#dbody = 2.392170e-11
m.xvco.xm21.msky130_fd_pr__nfet_g5v0d10v5#sbody = 4.784357e-12
m.xvco.xm22.msky130_fd_pr__pfet_g5v0d10v5#body = 1.800000e+00
m.xvco.xm22.msky130_fd_pr__pfet_g5v0d10v5#dbody = 1.800000e+00
m.xvco.xm22.msky130_fd_pr__pfet_g5v0d10v5#sbody = 1.800000e+00
m.xvco.xm23.msky130_fd_pr__nfet_g5v0d10v5#body = 2.391840e-11
m.xvco.xm23.msky130_fd_pr__nfet_g5v0d10v5#dbody = 5.814587e-11
m.xvco.xm23.msky130_fd_pr__nfet_g5v0d10v5#sbody = 1.195920e-11
m.xvco.xm24.msky130_fd_pr__pfet_g5v0d10v5#body = 1.800000e+00
m.xvco.xm24.msky130_fd_pr__pfet_g5v0d10v5#dbody = 1.800000e+00
m.xvco.xm24.msky130_fd_pr__pfet_g5v0d10v5#sbody = 1.800000e+00
out = 9.000000e-01
q.xvco.xq2.qsky130_fd_pr__pnp_05v5_w0p68l0p68#collcx = 1.149905e-04
q.xvco.xq3.qsky130_fd_pr__pnp_05v5_w0p68l0p68#collcx = 1.149905e-04
q.xvco.xq4.qsky130_fd_pr__pnp_05v5_w0p68l0p68#collcx = 1.149905e-04
q.xvco.xq5.qsky130_fd_pr__pnp_05v5_w0p68l0p68#collcx = 1.149905e-04
q.xvco.xq6.qsky130_fd_pr__pnp_05v5_w0p68l0p68#collcx = 1.149905e-04
q.xvco.xq7.qsky130_fd_pr__pnp_05v5_w0p68l0p68#collcx = 1.149905e-04
q.xvco.xq8.qsky130_fd_pr__pnp_05v5_w0p68l0p68#collcx = 1.149905e-04
q.xvco.xq9.qsky130_fd_pr__pnp_05v5_w0p68l0p68#collcx = 1.149905e-04
q.xvco.xq10.qsky130_fd_pr__pnp_05v5_w0p68l0p68#collcx = 8.125376e-04
vdd = 1.800000e+00
vdd#branch = -1.41838e-04
vtuner#branch = 8.130110e-05
xvco.net1 = 9.211788e-01
xvco.net2 = 6.011176e-01
xvco.net3 = 6.494410e-01
xvco.net4 = 7.168654e-01
xvco.net5 = 1.460079e+00
xvco.net6 = 9.629353e-01
xvco.net7 = 1.798838e+00
xvco.vbe = 6.648002e-01
xvco.xr1.xsky130_fd_pr__res_xhigh_po_1p41.ra = 1.682029e-03
xvco.xr3.xsky130_fd_pr__res_xhigh_po_1p41.ra = 1.723974e-03
xvco.xr4.xsky130_fd_pr__res_xhigh_po_1p41.ra = 6.015395e-01
